* NGSPICE file created from testbuffer.ext - technology: sky130A


* Top level circuit testbuffer

.subckt testbuffer bias out vdd vss inp6 inp5 inp4 inp3 inp2 inp1 inp0 in2 in1 in0
X0 vss a_n10687_9719# a_n9185_10289# vss sky130_fd_pr__nfet_01v8 ad=8.35522e+13p pd=7.91e+08u as=1.755e+11p ps=1.84e+06u w=650000u l=150000u
X1 a_n9087_10807# a_n10885_9844# vss vss sky130_fd_pr__nfet_01v8 ad=5.265e+11p pd=5.52e+06u as=0p ps=0u w=650000u l=150000u
X2 a_n9765_7385# a_n10687_9719# vss vss sky130_fd_pr__nfet_01v8 ad=1.071e+11p pd=1.35e+06u as=0p ps=0u w=420000u l=150000u
X3 a_n8399_5545# a_n8491_6481# vss vss sky130_fd_pr__nfet_01v8 ad=1.352e+11p pd=1.56e+06u as=0p ps=0u w=520000u l=150000u
X4 vdd vss vdd vdd sky130_fd_pr__pfet_01v8_hvt ad=8.70291e+13p pd=8.1547e+08u as=0p ps=0u w=870000u l=1.05e+06u
X5 vdd vss vdd vdd sky130_fd_pr__pfet_01v8_hvt ad=0p pd=0u as=0p ps=0u w=870000u l=1.97e+06u
X6 a_n9027_9201# a_n9923_6455# a_n9087_11351# vdd sky130_fd_pr__pfet_01v8_hvt ad=7.9e+11p pd=7.58e+06u as=2.7e+11p ps=2.54e+06u w=1e+06u l=150000u
X7 vss a_n10705_5393# a_n8817_7025# vss sky130_fd_pr__nfet_01v8 ad=0p pd=0u as=1.755e+11p ps=1.84e+06u w=650000u l=150000u
X8 vdd vdd vdd vdd sky130_fd_pr__pfet_01v8_lvt ad=0p pd=0u as=0p ps=0u w=1e+06u l=1e+06u
X9 vss vss vss vss sky130_fd_pr__nfet_01v8_lvt ad=0p pd=0u as=0p ps=0u w=1e+06u l=1e+06u
X10 vdd a_n10885_9844# a_n10883_9745# vdd sky130_fd_pr__pfet_01v8_hvt ad=0p pd=0u as=2.415e+11p ps=2.83e+06u w=420000u l=150000u
X11 vdd vss vdd vdd sky130_fd_pr__pfet_01v8_hvt ad=0p pd=0u as=0p ps=0u w=870000u l=590000u
X12 vss a_n10581_8113# a_n10555_8631# vss sky130_fd_pr__nfet_01v8 ad=0p pd=0u as=1.755e+11p ps=1.84e+06u w=650000u l=150000u
X13 a_1637_3950# a_1637_3950# a_1637_3950# vss sky130_fd_pr__nfet_01v8_lvt ad=1.044e+13p pd=8.476e+07u as=0p ps=0u w=2e+06u l=1e+06u
X14 a_n9923_6455# a_n9185_10289# vdd vdd sky130_fd_pr__pfet_01v8_hvt ad=8.1e+11p pd=7.62e+06u as=0p ps=0u w=1e+06u l=150000u
X15 a_1395_7095# a_1410_10413# vdd vdd sky130_fd_pr__pfet_01v8_lvt ad=1.856e+13p pd=1.4076e+08u as=0p ps=0u w=1e+06u l=1e+06u
X16 vdd vdd vdd vdd sky130_fd_pr__pfet_01v8_lvt ad=0p pd=0u as=0p ps=0u w=1e+06u l=1e+06u
X17 a_n10801_9745# a_n10885_9844# a_n10883_9745# vss sky130_fd_pr__nfet_01v8 ad=8.82e+10p pd=1.26e+06u as=1.092e+11p ps=1.36e+06u w=420000u l=150000u
X18 vss vdd vss vss sky130_fd_pr__nfet_01v8 ad=0p pd=0u as=0p ps=0u w=550000u l=590000u
X19 a_1713_14350# a_8564_4527# a_8564_4527# vdd sky130_fd_pr__pfet_01v8_lvt ad=6.38e+12p pd=5.676e+07u as=4.06e+12p ps=3.612e+07u w=1e+06u l=4e+06u
X20 a_n10249_9317# a_n10759_9719# vdd vdd sky130_fd_pr__pfet_01v8_hvt ad=1.092e+11p pd=1.36e+06u as=0p ps=0u w=420000u l=150000u
X21 vdd vdd vdd vdd sky130_fd_pr__pfet_01v8_lvt ad=0p pd=0u as=0p ps=0u w=1e+06u l=4e+06u
X22 vss vdd vss vss sky130_fd_pr__nfet_01v8 ad=0p pd=0u as=0p ps=0u w=550000u l=2.89e+06u
X23 vss vss vss vss sky130_fd_pr__nfet_01v8_lvt ad=0p pd=0u as=0p ps=0u w=1e+06u l=1e+06u
X24 a_1637_3950# a_1637_3950# a_1637_3950# vss sky130_fd_pr__nfet_01v8_lvt ad=0p pd=0u as=0p ps=0u w=2e+06u l=1e+06u
X25 vdd vss vdd vdd sky130_fd_pr__pfet_01v8_hvt ad=0p pd=0u as=0p ps=0u w=870000u l=2.89e+06u
X26 a_n9477_5393# a_n9645_5393# vss vss sky130_fd_pr__nfet_01v8 ad=5.265e+11p pd=5.52e+06u as=0p ps=0u w=650000u l=150000u
X27 vdd vss vdd vdd sky130_fd_pr__pfet_01v8_hvt ad=0p pd=0u as=0p ps=0u w=870000u l=590000u
X28 a_8564_4527# a_8564_4527# a_8564_4527# vdd sky130_fd_pr__pfet_01v8_lvt ad=0p pd=0u as=0p ps=0u w=1e+06u l=4e+06u
X29 vss a_1652_2439# a_1637_3950# vss sky130_fd_pr__nfet_01v8_lvt ad=0p pd=0u as=0p ps=0u w=1e+06u l=1e+06u
X30 a_1395_7095# out a_1911_7095# vdd sky130_fd_pr__pfet_01v8_lvt ad=0p pd=0u as=4.64e+12p ps=3.432e+07u w=4e+06u l=1e+06u
X31 a_n9393_11377# a_n9423_11351# vss vss sky130_fd_pr__nfet_01v8 ad=3.51e+11p pd=3.68e+06u as=0p ps=0u w=650000u l=150000u
X32 vdd vdd vdd vdd sky130_fd_pr__pfet_01v8_lvt ad=0p pd=0u as=0p ps=0u w=1e+06u l=1e+06u
X33 a_n3086_3753# a_n3825_9723# inp1 vdd sky130_fd_pr__pfet_01v8 ad=2.32e+12p pd=2.064e+07u as=2.9e+11p ps=2.58e+06u w=1e+06u l=500000u
X34 vdd vss vdd vdd sky130_fd_pr__pfet_01v8_hvt ad=0p pd=0u as=0p ps=0u w=870000u l=590000u
X35 a_1395_7095# a_n3086_3753# a_1911_8558# vdd sky130_fd_pr__pfet_01v8_lvt ad=0p pd=0u as=4.64e+12p ps=3.432e+07u w=4e+06u l=1e+06u
X36 vss a_1652_2439# a_1911_7095# vss sky130_fd_pr__nfet_01v8_lvt ad=0p pd=0u as=1.624e+13p ps=1.352e+08u w=1e+06u l=1e+06u
X37 vdd a_n9423_10807# a_n9393_10833# vdd sky130_fd_pr__pfet_01v8_hvt ad=0p pd=0u as=5.4e+11p ps=5.08e+06u w=1e+06u l=150000u
X38 vss vdd vss vss sky130_fd_pr__nfet_01v8 ad=0p pd=0u as=0p ps=0u w=550000u l=590000u
X39 a_n2111_12708# a_n2387_12708# vdd vdd sky130_fd_pr__pfet_01v8_lvt ad=2.9e+11p pd=2.58e+06u as=0p ps=0u w=1e+06u l=400000u
X40 vss vss vss vss sky130_fd_pr__nfet_01v8_lvt ad=0p pd=0u as=0p ps=0u w=1e+06u l=1e+06u
X41 vdd a_n9423_11351# a_n9393_11377# vdd sky130_fd_pr__pfet_01v8_hvt ad=0p pd=0u as=5.4e+11p ps=5.08e+06u w=1e+06u l=150000u
X42 a_n10759_9719# a_n10555_8631# vss vss sky130_fd_pr__nfet_01v8 ad=5.265e+11p pd=5.52e+06u as=0p ps=0u w=650000u l=150000u
X43 vdd vss vdd vdd sky130_fd_pr__pfet_01v8_hvt ad=0p pd=0u as=0p ps=0u w=870000u l=590000u
X44 a_n9915_7257# a_n9642_7257# a_n9684_7385# vss sky130_fd_pr__nfet_01v8 ad=1.07825e+11p pd=1.36e+06u as=8.82e+10p ps=1.26e+06u w=420000u l=150000u
X45 vdd vdd vdd vdd sky130_fd_pr__pfet_01v8_lvt ad=0p pd=0u as=0p ps=0u w=1e+06u l=1e+06u
X46 a_8564_4527# bias a_1911_7095# vss sky130_fd_pr__nfet_01v8_lvt ad=8.12e+12p pd=6.412e+07u as=0p ps=0u w=2e+06u l=4e+06u
X47 a_1713_14350# a_1713_14350# vdd vdd sky130_fd_pr__pfet_01v8_lvt ad=0p pd=0u as=0p ps=0u w=1e+06u l=1e+06u
X48 a_n10759_9719# a_n10555_8631# vss vss sky130_fd_pr__nfet_01v8 ad=0p pd=0u as=0p ps=0u w=650000u l=150000u
X49 vss a_1652_2439# vss vss sky130_fd_pr__nfet_01v8_lvt ad=0p pd=0u as=0p ps=0u w=1e+06u l=1e+06u
X50 a_1911_7095# a_1652_2439# vss vss sky130_fd_pr__nfet_01v8_lvt ad=0p pd=0u as=0p ps=0u w=1e+06u l=1e+06u
X51 vdd vdd vdd vdd sky130_fd_pr__pfet_01v8_lvt ad=0p pd=0u as=0p ps=0u w=1e+06u l=1e+06u
X52 a_n2111_9723# a_n2387_9723# vdd vdd sky130_fd_pr__pfet_01v8_lvt ad=2.9e+11p pd=2.58e+06u as=0p ps=0u w=1e+06u l=400000u
X53 a_8564_3671# a_8564_4527# a_1913_15050# vdd sky130_fd_pr__pfet_01v8_lvt ad=4.06e+12p pd=3.612e+07u as=6.38e+12p ps=5.676e+07u w=1e+06u l=4e+06u
X54 vdd vss vdd vdd sky130_fd_pr__pfet_01v8_hvt ad=0p pd=0u as=0p ps=0u w=870000u l=2.89e+06u
X55 a_n10405_7569# a_n10435_7543# vss vss sky130_fd_pr__nfet_01v8 ad=3.51e+11p pd=3.68e+06u as=0p ps=0u w=650000u l=150000u
X56 a_n10053_9201# a_n9923_6455# vss vss sky130_fd_pr__nfet_01v8 ad=5.265e+11p pd=5.52e+06u as=0p ps=0u w=650000u l=150000u
X57 a_1913_15050# a_8564_4527# a_8564_3671# vdd sky130_fd_pr__pfet_01v8_lvt ad=0p pd=0u as=0p ps=0u w=1e+06u l=4e+06u
X58 vss a_1652_2439# vss vss sky130_fd_pr__nfet_01v8_lvt ad=0p pd=0u as=0p ps=0u w=1e+06u l=1e+06u
X59 vss vss vss vss sky130_fd_pr__nfet_01v8_lvt ad=0p pd=0u as=0p ps=0u w=1e+06u l=1e+06u
X60 a_n10099_7543# a_n9643_6455# a_n9893_6731# vdd sky130_fd_pr__pfet_01v8_hvt ad=2.7e+11p pd=2.54e+06u as=8.3e+11p ps=7.66e+06u w=1e+06u l=150000u
X61 vss a_n10885_9844# a_n9087_11351# vss sky130_fd_pr__nfet_01v8 ad=0p pd=0u as=5.265e+11p ps=5.52e+06u w=650000u l=150000u
X62 vdd vdd vdd vdd sky130_fd_pr__pfet_01v8_lvt ad=0p pd=0u as=0p ps=0u w=1e+06u l=1e+06u
X63 vdd vss vdd vdd sky130_fd_pr__pfet_01v8_hvt ad=0p pd=0u as=0p ps=0u w=870000u l=2.89e+06u
X64 a_n9645_5393# a_n9970_10289# vss vss sky130_fd_pr__nfet_01v8 ad=1.755e+11p pd=1.84e+06u as=0p ps=0u w=650000u l=150000u
X65 a_8564_4527# a_8564_4527# a_8564_4527# vdd sky130_fd_pr__pfet_01v8_lvt ad=0p pd=0u as=0p ps=0u w=1e+06u l=4e+06u
X66 vdd vss vdd vdd sky130_fd_pr__pfet_01v8_hvt ad=0p pd=0u as=0p ps=0u w=870000u l=1.05e+06u
X67 vdd vdd vdd vdd sky130_fd_pr__pfet_01v8_lvt ad=0p pd=0u as=0p ps=0u w=1e+06u l=4e+06u
X68 a_n9477_5393# a_n9645_5393# vss vss sky130_fd_pr__nfet_01v8 ad=0p pd=0u as=0p ps=0u w=650000u l=150000u
X69 a_n8755_9201# a_n10759_9719# a_n9027_9201# vdd sky130_fd_pr__pfet_01v8_hvt ad=8.3e+11p pd=7.66e+06u as=0p ps=0u w=1e+06u l=150000u
X70 vdd a_n8817_7025# a_n10885_9844# vdd sky130_fd_pr__pfet_01v8_hvt ad=0p pd=0u as=8.1e+11p ps=7.62e+06u w=1e+06u l=150000u
X71 a_n9923_6455# a_n9185_10289# vss vss sky130_fd_pr__nfet_01v8 ad=5.265e+11p pd=5.52e+06u as=0p ps=0u w=650000u l=150000u
X72 a_n9530_6297# a_n10581_8113# a_n9602_6297# vss sky130_fd_pr__nfet_01v8 ad=1.071e+11p pd=1.35e+06u as=8.82e+10p ps=1.26e+06u w=420000u l=150000u
X73 a_1913_15050# a_1713_14350# vdd vdd sky130_fd_pr__pfet_01v8_lvt ad=0p pd=0u as=0p ps=0u w=1e+06u l=1e+06u
X74 a_1637_3950# out a_1713_14350# vss sky130_fd_pr__nfet_01v8_lvt ad=0p pd=0u as=2.32e+12p ps=1.832e+07u w=2e+06u l=1e+06u
X75 vdd a_n8725_5937# a_n8557_5937# vdd sky130_fd_pr__pfet_01v8_hvt ad=0p pd=0u as=8.1e+11p ps=7.62e+06u w=1e+06u l=150000u
X76 a_n3086_3753# a_n2111_6738# inp3 vss sky130_fd_pr__nfet_01v8 ad=2.32e+12p pd=2.064e+07u as=2.9e+11p ps=2.58e+06u w=1e+06u l=500000u
X77 vdd a_1410_10413# a_1395_7095# vdd sky130_fd_pr__pfet_01v8_lvt ad=0p pd=0u as=0p ps=0u w=1e+06u l=1e+06u
X78 a_1713_14350# a_8564_4527# a_8564_4527# vdd sky130_fd_pr__pfet_01v8_lvt ad=0p pd=0u as=0p ps=0u w=1e+06u l=4e+06u
X79 vdd vss vdd vdd sky130_fd_pr__pfet_01v8_hvt ad=0p pd=0u as=0p ps=0u w=870000u l=590000u
X80 a_1911_8558# a_1652_2439# vss vss sky130_fd_pr__nfet_01v8_lvt ad=1.624e+13p pd=1.352e+08u as=0p ps=0u w=1e+06u l=1e+06u
X81 a_n9237_8229# a_n9923_6455# vss vss sky130_fd_pr__nfet_01v8 ad=1.092e+11p pd=1.36e+06u as=0p ps=0u w=420000u l=150000u
X82 a_1637_3950# a_n3086_3753# a_1913_15050# vss sky130_fd_pr__nfet_01v8_lvt ad=0p pd=0u as=2.32e+12p ps=1.832e+07u w=2e+06u l=1e+06u
X83 vdd a_n8817_7025# a_n10885_9844# vdd sky130_fd_pr__pfet_01v8_hvt ad=0p pd=0u as=0p ps=0u w=1e+06u l=150000u
X84 vss a_n10405_7569# a_n2387_6738# vss sky130_fd_pr__nfet_01v8_lvt ad=0p pd=0u as=2.9e+11p ps=2.58e+06u w=1e+06u l=400000u
X85 a_n8755_9201# a_n10885_9844# vdd vdd sky130_fd_pr__pfet_01v8_hvt ad=0p pd=0u as=0p ps=0u w=1e+06u l=150000u
X86 a_n9393_11377# a_n9423_11351# vss vss sky130_fd_pr__nfet_01v8 ad=0p pd=0u as=0p ps=0u w=650000u l=150000u
X87 vdd a_n10529_9745# a_n10147_10297# vdd sky130_fd_pr__pfet_01v8_hvt ad=0p pd=0u as=1.664e+11p ps=1.8e+06u w=640000u l=150000u
X88 a_8564_3671# bias a_1911_8558# vss sky130_fd_pr__nfet_01v8_lvt ad=8.12e+12p pd=6.412e+07u as=0p ps=0u w=2e+06u l=4e+06u
X89 a_n3549_3753# a_n3825_3753# vss vss sky130_fd_pr__nfet_01v8_lvt ad=2.9e+11p pd=2.58e+06u as=0p ps=0u w=1e+06u l=400000u
X90 a_1637_3950# a_n3086_3753# a_1913_15050# vss sky130_fd_pr__nfet_01v8_lvt ad=0p pd=0u as=0p ps=0u w=2e+06u l=1e+06u
X91 a_n8222_5393# a_n8399_5393# vss vss sky130_fd_pr__nfet_01v8 ad=1.755e+11p pd=1.84e+06u as=0p ps=0u w=650000u l=150000u
X92 a_1410_10413# a_1410_10413# vdd vdd sky130_fd_pr__pfet_01v8_lvt ad=1.45e+12p pd=1.29e+07u as=0p ps=0u w=1e+06u l=1e+06u
X93 vss vss vss vss sky130_fd_pr__nfet_01v8_lvt ad=0p pd=0u as=0p ps=0u w=1e+06u l=1e+06u
X94 a_n10885_9844# a_n8817_7025# vss vss sky130_fd_pr__nfet_01v8 ad=5.265e+11p pd=5.52e+06u as=0p ps=0u w=650000u l=150000u
X95 vdd a_8564_3671# out vdd sky130_fd_pr__pfet_01v8_lvt ad=0p pd=0u as=3.48e+12p ps=2.574e+07u w=4e+06u l=4e+06u
X96 vdd a_n8725_5937# a_n8557_5937# vdd sky130_fd_pr__pfet_01v8_hvt ad=0p pd=0u as=0p ps=0u w=1e+06u l=150000u
X97 vss a_n10053_9201# a_n9503_9745# vss sky130_fd_pr__nfet_01v8 ad=0p pd=0u as=1.69e+11p ps=1.82e+06u w=650000u l=150000u
X98 vdd vss vdd vdd sky130_fd_pr__pfet_01v8_hvt ad=0p pd=0u as=0p ps=0u w=870000u l=590000u
X99 vdd a_n10749_8113# a_n10581_8113# vdd sky130_fd_pr__pfet_01v8_hvt ad=0p pd=0u as=8.1e+11p ps=7.62e+06u w=1e+06u l=150000u
X100 vss a_1652_2439# a_1637_3950# vss sky130_fd_pr__nfet_01v8_lvt ad=0p pd=0u as=0p ps=0u w=1e+06u l=1e+06u
X101 a_1637_3950# out a_1713_14350# vss sky130_fd_pr__nfet_01v8_lvt ad=0p pd=0u as=0p ps=0u w=2e+06u l=1e+06u
X102 a_8564_3671# a_8564_4527# a_1913_15050# vdd sky130_fd_pr__pfet_01v8_lvt ad=0p pd=0u as=0p ps=0u w=1e+06u l=4e+06u
X103 a_n9423_11351# a_n9087_11351# vdd vdd sky130_fd_pr__pfet_01v8_hvt ad=2.6e+11p pd=2.52e+06u as=0p ps=0u w=1e+06u l=150000u
X104 a_8564_3671# a_8564_3671# a_8564_3671# vdd sky130_fd_pr__pfet_01v8_lvt ad=0p pd=0u as=0p ps=0u w=1e+06u l=4e+06u
X105 vss vss vss vss sky130_fd_pr__nfet_01v8_lvt ad=0p pd=0u as=0p ps=0u w=1e+06u l=1e+06u
X106 a_n9127_8113# a_n10759_9719# a_n8847_8113# vdd sky130_fd_pr__pfet_01v8_hvt ad=8.3e+11p pd=7.66e+06u as=8.3e+11p ps=7.66e+06u w=1e+06u l=150000u
X107 vss vss vss vss sky130_fd_pr__nfet_01v8_lvt ad=0p pd=0u as=0p ps=0u w=1e+06u l=1e+06u
X108 vdd a_n9915_7257# a_n10515_6169# vdd sky130_fd_pr__pfet_01v8_hvt ad=0p pd=0u as=2.6e+11p ps=2.52e+06u w=1e+06u l=150000u
X109 a_n10099_7543# a_n10759_9719# vss vss sky130_fd_pr__nfet_01v8 ad=5.265e+11p pd=5.52e+06u as=0p ps=0u w=650000u l=150000u
X110 vss a_n8399_5545# a_n8399_5393# vss sky130_fd_pr__nfet_01v8 ad=0p pd=0u as=1.092e+11p ps=1.36e+06u w=420000u l=150000u
X111 vdd a_n8725_5937# a_n8557_5937# vdd sky130_fd_pr__pfet_01v8_hvt ad=0p pd=0u as=0p ps=0u w=1e+06u l=150000u
X112 vss vdd vss vss sky130_fd_pr__nfet_01v8 ad=0p pd=0u as=0p ps=0u w=550000u l=590000u
X113 vdd a_1713_14350# a_1913_15050# vdd sky130_fd_pr__pfet_01v8_lvt ad=0p pd=0u as=0p ps=0u w=1e+06u l=1e+06u
X114 vdd vdd vdd vdd sky130_fd_pr__pfet_01v8_lvt ad=0p pd=0u as=0p ps=0u w=1e+06u l=1e+06u
X115 vdd a_n10749_8113# a_n10581_8113# vdd sky130_fd_pr__pfet_01v8_hvt ad=0p pd=0u as=0p ps=0u w=1e+06u l=150000u
X116 a_n10437_7025# a_n10607_7025# vdd vdd sky130_fd_pr__pfet_01v8_hvt ad=2.054e+11p pd=2.1e+06u as=0p ps=0u w=790000u l=150000u
X117 vss vdd vss vss sky130_fd_pr__nfet_01v8 ad=0p pd=0u as=0p ps=0u w=550000u l=590000u
X118 a_1713_14350# a_8564_4527# a_8564_4527# vdd sky130_fd_pr__pfet_01v8_lvt ad=0p pd=0u as=0p ps=0u w=1e+06u l=4e+06u
X119 vss a_n10759_9719# a_n9087_10807# vss sky130_fd_pr__nfet_01v8 ad=0p pd=0u as=0p ps=0u w=650000u l=150000u
X120 vdd vdd vdd vdd sky130_fd_pr__pfet_01v8_lvt ad=0p pd=0u as=0p ps=0u w=1e+06u l=1e+06u
X121 vdd vdd vdd vdd sky130_fd_pr__pfet_01v8_lvt ad=0p pd=0u as=0p ps=0u w=1e+06u l=4e+06u
X122 out a_8564_3671# vss vss sky130_fd_pr__nfet_01v8_lvt ad=3.48e+12p pd=2.574e+07u as=0p ps=0u w=4e+06u l=4e+06u
X123 a_1911_7095# out a_1395_7095# vdd sky130_fd_pr__pfet_01v8_lvt ad=0p pd=0u as=0p ps=0u w=4e+06u l=1e+06u
X124 a_n9185_10289# a_n10687_9719# vss vss sky130_fd_pr__nfet_01v8 ad=0p pd=0u as=0p ps=0u w=650000u l=150000u
X125 a_n3086_3753# a_n3825_12708# inp0 vdd sky130_fd_pr__pfet_01v8 ad=0p pd=0u as=2.9e+11p ps=2.58e+06u w=1e+06u l=500000u
X126 a_n9602_6297# a_n9789_5937# a_n9689_6053# vss sky130_fd_pr__nfet_01v8 ad=0p pd=0u as=1.07825e+11p ps=1.36e+06u w=420000u l=150000u
X127 a_n9393_11377# a_n9423_11351# vdd vdd sky130_fd_pr__pfet_01v8_hvt ad=0p pd=0u as=0p ps=0u w=1e+06u l=150000u
X128 a_1911_8558# bias a_8564_3671# vss sky130_fd_pr__nfet_01v8_lvt ad=0p pd=0u as=0p ps=0u w=2e+06u l=4e+06u
X129 a_n8817_7025# a_n10705_5393# vss vss sky130_fd_pr__nfet_01v8 ad=0p pd=0u as=0p ps=0u w=650000u l=150000u
X130 vdd vss vdd vdd sky130_fd_pr__pfet_01v8_hvt ad=0p pd=0u as=0p ps=0u w=870000u l=1.05e+06u
X131 a_1911_8558# a_1652_2439# vss vss sky130_fd_pr__nfet_01v8_lvt ad=0p pd=0u as=0p ps=0u w=1e+06u l=1e+06u
X132 vdd a_1713_14350# a_1713_14350# vdd sky130_fd_pr__pfet_01v8_lvt ad=0p pd=0u as=0p ps=0u w=1e+06u l=1e+06u
X133 vdd vdd vdd vdd sky130_fd_pr__pfet_01v8_lvt ad=0p pd=0u as=0p ps=0u w=1e+06u l=4e+06u
X134 a_8564_3671# a_8564_4527# a_1913_15050# vdd sky130_fd_pr__pfet_01v8_lvt ad=0p pd=0u as=0p ps=0u w=1e+06u l=4e+06u
X135 vss a_n10749_11377# a_n10687_9719# vss sky130_fd_pr__nfet_01v8 ad=0p pd=0u as=5.265e+11p ps=5.52e+06u w=650000u l=150000u
X136 a_1468_10316# a_1652_2439# vss vss sky130_fd_pr__nfet_01v8_lvt ad=1.16e+12p pd=1.032e+07u as=0p ps=0u w=1e+06u l=1e+06u
X137 vdd vdd vdd vdd sky130_fd_pr__pfet_01v8_lvt ad=0p pd=0u as=0p ps=0u w=1e+06u l=4e+06u
X138 vss vdd vss vss sky130_fd_pr__nfet_01v8 ad=0p pd=0u as=0p ps=0u w=550000u l=1.05e+06u
X139 vss a_n10885_9844# a_n10053_9201# vss sky130_fd_pr__nfet_01v8 ad=0p pd=0u as=0p ps=0u w=650000u l=150000u
X140 a_1911_8558# a_1652_2439# vss vss sky130_fd_pr__nfet_01v8_lvt ad=0p pd=0u as=0p ps=0u w=1e+06u l=1e+06u
X141 vdd vss vdd vdd sky130_fd_pr__pfet_01v8_hvt ad=0p pd=0u as=0p ps=0u w=870000u l=1.05e+06u
X142 vdd vdd vdd vdd sky130_fd_pr__pfet_01v8_lvt ad=0p pd=0u as=0p ps=0u w=1e+06u l=1e+06u
X143 a_8564_3671# bias a_1911_8558# vss sky130_fd_pr__nfet_01v8_lvt ad=0p pd=0u as=0p ps=0u w=2e+06u l=4e+06u
X144 a_n10345_5937# a_n10515_5937# vdd vdd sky130_fd_pr__pfet_01v8_hvt ad=2.054e+11p pd=2.1e+06u as=0p ps=0u w=790000u l=150000u
X145 vdd vdd vdd vdd sky130_fd_pr__pfet_01v8_lvt ad=0p pd=0u as=0p ps=0u w=1e+06u l=1e+06u
X146 a_n10405_7569# a_n10435_7543# vdd vdd sky130_fd_pr__pfet_01v8_hvt ad=5.4e+11p pd=5.08e+06u as=0p ps=0u w=1e+06u l=150000u
X147 a_1911_8558# a_1652_2439# vss vss sky130_fd_pr__nfet_01v8_lvt ad=0p pd=0u as=0p ps=0u w=1e+06u l=1e+06u
X148 vss a_8564_3671# out vss sky130_fd_pr__nfet_01v8_lvt ad=0p pd=0u as=0p ps=0u w=4e+06u l=4e+06u
X149 vss a_n9645_5393# a_n9477_5393# vss sky130_fd_pr__nfet_01v8 ad=0p pd=0u as=0p ps=0u w=650000u l=150000u
X150 a_1911_8558# bias a_8564_3671# vss sky130_fd_pr__nfet_01v8_lvt ad=0p pd=0u as=0p ps=0u w=2e+06u l=4e+06u
X151 vss vdd vss vss sky130_fd_pr__nfet_01v8 ad=0p pd=0u as=0p ps=0u w=550000u l=1.05e+06u
X152 vdd vss vdd vdd sky130_fd_pr__pfet_01v8_hvt ad=0p pd=0u as=0p ps=0u w=870000u l=2.89e+06u
X153 vdd a_n9477_5393# a_n2387_3753# vdd sky130_fd_pr__pfet_01v8_lvt ad=0p pd=0u as=2.9e+11p ps=2.58e+06u w=1e+06u l=400000u
X154 vdd vss vdd vdd sky130_fd_pr__pfet_01v8_hvt ad=0p pd=0u as=0p ps=0u w=870000u l=1.05e+06u
X155 vss vdd vss vss sky130_fd_pr__nfet_01v8 ad=0p pd=0u as=0p ps=0u w=550000u l=590000u
X156 a_1468_10316# a_1468_10316# a_1410_10413# vdd sky130_fd_pr__pfet_01v8_lvt ad=5.8e+11p pd=5.16e+06u as=0p ps=0u w=1e+06u l=4e+06u
X157 a_1911_8558# a_1652_2439# vss vss sky130_fd_pr__nfet_01v8_lvt ad=0p pd=0u as=0p ps=0u w=1e+06u l=1e+06u
X158 a_n3086_3753# a_n2387_6738# inp3 vdd sky130_fd_pr__pfet_01v8 ad=0p pd=0u as=2.9e+11p ps=2.58e+06u w=1e+06u l=500000u
X159 vss a_n9643_6455# a_n10099_7543# vss sky130_fd_pr__nfet_01v8 ad=0p pd=0u as=0p ps=0u w=650000u l=150000u
X160 vdd vss vdd vdd sky130_fd_pr__pfet_01v8_hvt ad=0p pd=0u as=0p ps=0u w=870000u l=1.05e+06u
X161 out a_8564_3671# vss vss sky130_fd_pr__nfet_01v8_lvt ad=0p pd=0u as=0p ps=0u w=4e+06u l=4e+06u
X162 a_n9393_11377# a_n9423_11351# vdd vdd sky130_fd_pr__pfet_01v8_hvt ad=0p pd=0u as=0p ps=0u w=1e+06u l=150000u
X163 a_1913_15050# a_8564_4527# a_8564_3671# vdd sky130_fd_pr__pfet_01v8_lvt ad=0p pd=0u as=0p ps=0u w=1e+06u l=4e+06u
X164 vdd vdd vdd vdd sky130_fd_pr__pfet_01v8_lvt ad=0p pd=0u as=0p ps=0u w=1e+06u l=1e+06u
X165 vdd vdd vdd vdd sky130_fd_pr__pfet_01v8_lvt ad=0p pd=0u as=0p ps=0u w=1e+06u l=1e+06u
X166 vss a_n9423_11351# a_n9393_11377# vss sky130_fd_pr__nfet_01v8 ad=0p pd=0u as=0p ps=0u w=650000u l=150000u
X167 a_1911_8558# a_n3086_3753# a_1395_7095# vdd sky130_fd_pr__pfet_01v8_lvt ad=0p pd=0u as=0p ps=0u w=4e+06u l=1e+06u
X168 a_n10405_7569# a_n10435_7543# vdd vdd sky130_fd_pr__pfet_01v8_hvt ad=0p pd=0u as=0p ps=0u w=1e+06u l=150000u
X169 vss vss vss vss sky130_fd_pr__nfet_01v8_lvt ad=0p pd=0u as=0p ps=0u w=2e+06u l=4e+06u
X170 a_n9915_7257# a_n10687_9719# vdd vdd sky130_fd_pr__pfet_01v8_hvt ad=2.5725e+11p pd=2.99e+06u as=0p ps=0u w=420000u l=150000u
X171 a_n9859_9201# a_n10885_9844# vdd vdd sky130_fd_pr__pfet_01v8_hvt ad=8.3e+11p pd=7.66e+06u as=0p ps=0u w=1e+06u l=150000u
X172 vdd a_n9333_5937# a_n8491_6481# vdd sky130_fd_pr__pfet_01v8_hvt ad=0p pd=0u as=2.054e+11p ps=2.1e+06u w=790000u l=150000u
X173 vdd in2 a_n10883_5393# vdd sky130_fd_pr__pfet_01v8_hvt ad=0p pd=0u as=2.65e+11p ps=2.53e+06u w=1e+06u l=150000u
X174 vss vdd vss vss sky130_fd_pr__nfet_01v8 ad=0p pd=0u as=0p ps=0u w=550000u l=590000u
X175 a_n9923_6455# a_n9185_10289# vdd vdd sky130_fd_pr__pfet_01v8_hvt ad=0p pd=0u as=0p ps=0u w=1e+06u l=150000u
X176 vdd a_n9547_7721# a_n10607_7257# vdd sky130_fd_pr__pfet_01v8_hvt ad=0p pd=0u as=2.6e+11p ps=2.52e+06u w=1e+06u l=150000u
X177 vss vdd vss vss sky130_fd_pr__nfet_01v8 ad=0p pd=0u as=0p ps=0u w=550000u l=1.05e+06u
X178 vdd a_n10705_5393# a_n8817_7025# vdd sky130_fd_pr__pfet_01v8_hvt ad=0p pd=0u as=2.7e+11p ps=2.54e+06u w=1e+06u l=150000u
X179 a_n10249_9317# a_n10759_9719# vss vss sky130_fd_pr__nfet_01v8 ad=1.092e+11p pd=1.36e+06u as=0p ps=0u w=420000u l=150000u
X180 a_8564_4527# a_8564_4527# a_1713_14350# vdd sky130_fd_pr__pfet_01v8_lvt ad=0p pd=0u as=0p ps=0u w=1e+06u l=4e+06u
X181 vss a_1652_2439# a_1911_8558# vss sky130_fd_pr__nfet_01v8_lvt ad=0p pd=0u as=0p ps=0u w=1e+06u l=1e+06u
X182 vdd in0 a_n10749_11377# vdd sky130_fd_pr__pfet_01v8_hvt ad=0p pd=0u as=2.7e+11p ps=2.54e+06u w=1e+06u l=150000u
X183 a_1911_8558# bias a_8564_3671# vss sky130_fd_pr__nfet_01v8_lvt ad=0p pd=0u as=0p ps=0u w=2e+06u l=4e+06u
X184 vdd vss vdd vdd sky130_fd_pr__pfet_01v8_hvt ad=0p pd=0u as=0p ps=0u w=870000u l=1.05e+06u
X185 a_n9087_11351# a_n10759_9719# vss vss sky130_fd_pr__nfet_01v8 ad=0p pd=0u as=0p ps=0u w=650000u l=150000u
X186 a_n10435_7543# a_n10099_7543# vdd vdd sky130_fd_pr__pfet_01v8_hvt ad=2.6e+11p pd=2.52e+06u as=0p ps=0u w=1e+06u l=150000u
X187 vss vss vss vss sky130_fd_pr__nfet_01v8_lvt ad=0p pd=0u as=0p ps=0u w=2e+06u l=4e+06u
X188 vss a_n9423_10807# a_n9393_10833# vss sky130_fd_pr__nfet_01v8 ad=0p pd=0u as=3.51e+11p ps=3.68e+06u w=650000u l=150000u
X189 vss vss vss vss sky130_fd_pr__nfet_01v8_lvt ad=0p pd=0u as=0p ps=0u w=1e+06u l=1e+06u
X190 vss vdd vss vss sky130_fd_pr__nfet_01v8 ad=0p pd=0u as=0p ps=0u w=550000u l=590000u
X191 vdd vss vdd vdd sky130_fd_pr__pfet_01v8_hvt ad=0p pd=0u as=0p ps=0u w=870000u l=2.89e+06u
X192 vss a_1652_2439# a_1911_8558# vss sky130_fd_pr__nfet_01v8_lvt ad=0p pd=0u as=0p ps=0u w=1e+06u l=1e+06u
X193 a_n9789_5937# a_n10687_9719# vss vss sky130_fd_pr__nfet_01v8 ad=1.0785e+11p pd=1.36e+06u as=0p ps=0u w=420000u l=150000u
X194 a_1913_15050# a_1713_14350# vdd vdd sky130_fd_pr__pfet_01v8_lvt ad=0p pd=0u as=0p ps=0u w=1e+06u l=1e+06u
X195 a_n10529_9745# a_n10883_9745# vss vss sky130_fd_pr__nfet_01v8 ad=1.69e+11p pd=1.82e+06u as=0p ps=0u w=650000u l=150000u
X196 a_n9689_6053# a_n10581_8113# vdd vdd sky130_fd_pr__pfet_01v8_hvt ad=2.5725e+11p pd=2.99e+06u as=0p ps=0u w=420000u l=150000u
X197 vdd a_n10885_9844# a_n9643_6455# vdd sky130_fd_pr__pfet_01v8_hvt ad=0p pd=0u as=1.092e+11p ps=1.36e+06u w=420000u l=150000u
X198 a_n9547_7721# a_n9274_7549# a_n9316_7575# vss sky130_fd_pr__nfet_01v8 ad=1.07825e+11p pd=1.36e+06u as=8.82e+10p ps=1.26e+06u w=420000u l=150000u
X199 vdd vdd vdd vdd sky130_fd_pr__pfet_01v8_lvt ad=0p pd=0u as=0p ps=0u w=1e+06u l=1e+06u
X200 vdd vdd vdd vdd sky130_fd_pr__pfet_01v8_lvt ad=0p pd=0u as=0p ps=0u w=1e+06u l=1e+06u
X201 vss vdd vss vss sky130_fd_pr__nfet_01v8 ad=0p pd=0u as=0p ps=0u w=550000u l=1.05e+06u
X202 vdd a_n8817_7025# a_n10885_9844# vdd sky130_fd_pr__pfet_01v8_hvt ad=0p pd=0u as=0p ps=0u w=1e+06u l=150000u
X203 vss vss vss vss sky130_fd_pr__nfet_01v8_lvt ad=0p pd=0u as=0p ps=0u w=1e+06u l=1e+06u
X204 a_8564_3671# a_8564_3671# a_8564_3671# vss sky130_fd_pr__nfet_01v8_lvt ad=0p pd=0u as=0p ps=0u w=2e+06u l=4e+06u
X205 vdd vss vdd vdd sky130_fd_pr__pfet_01v8_hvt ad=0p pd=0u as=0p ps=0u w=870000u l=590000u
X206 vdd a_n10437_7025# a_n8725_5937# vdd sky130_fd_pr__pfet_01v8_hvt ad=0p pd=0u as=2.7e+11p ps=2.54e+06u w=1e+06u l=150000u
X207 vss a_1652_2439# vss vss sky130_fd_pr__nfet_01v8_lvt ad=0p pd=0u as=0p ps=0u w=1e+06u l=1e+06u
X208 a_1713_14350# a_1713_14350# vdd vdd sky130_fd_pr__pfet_01v8_lvt ad=0p pd=0u as=0p ps=0u w=1e+06u l=1e+06u
X209 vss vdd vss vss sky130_fd_pr__nfet_01v8 ad=0p pd=0u as=0p ps=0u w=550000u l=2.89e+06u
X210 vdd vdd vdd vdd sky130_fd_pr__pfet_01v8_lvt ad=0p pd=0u as=0p ps=0u w=1e+06u l=1e+06u
X211 vdd vdd vdd vdd sky130_fd_pr__pfet_01v8_lvt ad=0p pd=0u as=0p ps=0u w=1e+06u l=4e+06u
X212 vss in0 a_n10749_11377# vss sky130_fd_pr__nfet_01v8 ad=0p pd=0u as=1.755e+11p ps=1.84e+06u w=650000u l=150000u
X213 vdd vss vdd vdd sky130_fd_pr__pfet_01v8_hvt ad=0p pd=0u as=0p ps=0u w=870000u l=590000u
X214 vss a_1652_2439# a_1911_8558# vss sky130_fd_pr__nfet_01v8_lvt ad=0p pd=0u as=0p ps=0u w=1e+06u l=1e+06u
X215 vss a_n8817_7025# a_n10885_9844# vss sky130_fd_pr__nfet_01v8 ad=0p pd=0u as=0p ps=0u w=650000u l=150000u
X216 vdd vdd vdd vdd sky130_fd_pr__pfet_01v8_lvt ad=0p pd=0u as=0p ps=0u w=1e+06u l=1e+06u
X217 vdd vdd vdd vdd sky130_fd_pr__pfet_01v8_lvt ad=0p pd=0u as=0p ps=0u w=1e+06u l=1e+06u
X218 vss a_n9393_10833# a_n3825_12708# vss sky130_fd_pr__nfet_01v8_lvt ad=0p pd=0u as=2.9e+11p ps=2.58e+06u w=1e+06u l=400000u
X219 vss a_n8817_7025# a_n10885_9844# vss sky130_fd_pr__nfet_01v8 ad=0p pd=0u as=0p ps=0u w=650000u l=150000u
X220 vdd a_n9423_11351# a_n9393_11377# vdd sky130_fd_pr__pfet_01v8_hvt ad=0p pd=0u as=0p ps=0u w=1e+06u l=150000u
X221 vss vss vss vss sky130_fd_pr__nfet_01v8_lvt ad=0p pd=0u as=0p ps=0u w=1e+06u l=1e+06u
X222 a_1911_8558# a_1652_2439# vss vss sky130_fd_pr__nfet_01v8_lvt ad=0p pd=0u as=0p ps=0u w=1e+06u l=1e+06u
X223 a_1395_7095# a_1410_10413# vdd vdd sky130_fd_pr__pfet_01v8_lvt ad=0p pd=0u as=0p ps=0u w=1e+06u l=1e+06u
X224 vdd in1 a_n10749_8113# vdd sky130_fd_pr__pfet_01v8_hvt ad=0p pd=0u as=2.7e+11p ps=2.54e+06u w=1e+06u l=150000u
X225 vdd vss vdd vdd sky130_fd_pr__pfet_01v8_hvt ad=0p pd=0u as=0p ps=0u w=870000u l=1.05e+06u
X226 a_1911_7095# a_1652_2439# vss vss sky130_fd_pr__nfet_01v8_lvt ad=0p pd=0u as=0p ps=0u w=1e+06u l=1e+06u
X227 vss vdd vss vss sky130_fd_pr__nfet_01v8 ad=0p pd=0u as=0p ps=0u w=550000u l=1.05e+06u
X228 vdd vss vdd vdd sky130_fd_pr__pfet_01v8_hvt ad=0p pd=0u as=0p ps=0u w=870000u l=1.05e+06u
X229 vss a_n8557_5937# a_n3825_6738# vss sky130_fd_pr__nfet_01v8_lvt ad=0p pd=0u as=2.9e+11p ps=2.58e+06u w=1e+06u l=400000u
X230 a_1913_15050# a_8564_4527# a_8564_3671# vdd sky130_fd_pr__pfet_01v8_lvt ad=0p pd=0u as=0p ps=0u w=1e+06u l=4e+06u
X231 vdd a_n9185_10289# a_n9923_6455# vdd sky130_fd_pr__pfet_01v8_hvt ad=0p pd=0u as=0p ps=0u w=1e+06u l=150000u
X232 vss vss vss vss sky130_fd_pr__nfet_01v8_lvt ad=0p pd=0u as=0p ps=0u w=1e+06u l=1e+06u
X233 a_8564_4527# bias a_1911_7095# vss sky130_fd_pr__nfet_01v8_lvt ad=0p pd=0u as=0p ps=0u w=2e+06u l=4e+06u
X234 vdd a_1713_14350# a_1713_14350# vdd sky130_fd_pr__pfet_01v8_lvt ad=0p pd=0u as=0p ps=0u w=1e+06u l=1e+06u
X235 a_1637_3950# a_1652_2439# vss vss sky130_fd_pr__nfet_01v8_lvt ad=0p pd=0u as=0p ps=0u w=1e+06u l=1e+06u
X236 a_1911_7095# a_1652_2439# vss vss sky130_fd_pr__nfet_01v8_lvt ad=0p pd=0u as=0p ps=0u w=1e+06u l=1e+06u
X237 a_1911_8558# a_n3086_3753# a_1395_7095# vdd sky130_fd_pr__pfet_01v8_lvt ad=0p pd=0u as=0p ps=0u w=4e+06u l=1e+06u
X238 vdd vdd vdd vdd sky130_fd_pr__pfet_01v8_lvt ad=0p pd=0u as=0p ps=0u w=1e+06u l=1e+06u
X239 vss a_n10759_9719# a_n10099_7543# vss sky130_fd_pr__nfet_01v8 ad=0p pd=0u as=0p ps=0u w=650000u l=150000u
X240 vdd vss vdd vdd sky130_fd_pr__pfet_01v8_hvt ad=0p pd=0u as=0p ps=0u w=870000u l=590000u
X241 a_n10437_7025# a_n10607_7025# vss vss sky130_fd_pr__nfet_01v8 ad=1.352e+11p pd=1.56e+06u as=0p ps=0u w=520000u l=150000u
X242 vss vdd vss vss sky130_fd_pr__nfet_01v8 ad=0p pd=0u as=0p ps=0u w=550000u l=1.05e+06u
X243 vss vdd vss vss sky130_fd_pr__nfet_01v8 ad=0p pd=0u as=0p ps=0u w=550000u l=590000u
X244 vss vdd vss vss sky130_fd_pr__nfet_01v8 ad=0p pd=0u as=0p ps=0u w=550000u l=1.05e+06u
X245 a_8564_4527# a_8564_4527# a_1713_14350# vdd sky130_fd_pr__pfet_01v8_lvt ad=0p pd=0u as=0p ps=0u w=1e+06u l=4e+06u
X246 vss vdd vss vss sky130_fd_pr__nfet_01v8 ad=0p pd=0u as=0p ps=0u w=550000u l=1.05e+06u
X247 a_1395_7095# a_n3086_3753# a_1911_8558# vdd sky130_fd_pr__pfet_01v8_lvt ad=0p pd=0u as=0p ps=0u w=4e+06u l=1e+06u
X248 vdd a_1713_14350# a_1913_15050# vdd sky130_fd_pr__pfet_01v8_lvt ad=0p pd=0u as=0p ps=0u w=1e+06u l=1e+06u
X249 vdd vdd vdd vdd sky130_fd_pr__pfet_01v8_lvt ad=0p pd=0u as=0p ps=0u w=1e+06u l=4e+06u
X250 a_1410_10413# a_1410_10413# vdd vdd sky130_fd_pr__pfet_01v8_lvt ad=0p pd=0u as=0p ps=0u w=1e+06u l=1e+06u
X251 a_n8222_8657# a_n8399_8657# vss vss sky130_fd_pr__nfet_01v8 ad=1.755e+11p pd=1.84e+06u as=0p ps=0u w=650000u l=150000u
X252 a_n9423_10807# a_n9087_10807# vss vss sky130_fd_pr__nfet_01v8 ad=1.69e+11p pd=1.82e+06u as=0p ps=0u w=650000u l=150000u
X253 vdd vdd vdd vdd sky130_fd_pr__pfet_01v8_lvt ad=0p pd=0u as=0p ps=0u w=1e+06u l=1e+06u
X254 a_n10435_7543# a_n10099_7543# vss vss sky130_fd_pr__nfet_01v8 ad=1.69e+11p pd=1.82e+06u as=0p ps=0u w=650000u l=150000u
X255 vss a_n10437_7025# a_n8725_5937# vss sky130_fd_pr__nfet_01v8 ad=0p pd=0u as=1.755e+11p ps=1.84e+06u w=650000u l=150000u
X256 vdd vss vdd vdd sky130_fd_pr__pfet_01v8_hvt ad=0p pd=0u as=0p ps=0u w=870000u l=2.89e+06u
X257 a_n10053_9201# a_n10885_9844# vss vss sky130_fd_pr__nfet_01v8 ad=0p pd=0u as=0p ps=0u w=650000u l=150000u
X258 a_n3549_9723# a_n3825_9723# vss vss sky130_fd_pr__nfet_01v8_lvt ad=2.9e+11p pd=2.58e+06u as=0p ps=0u w=1e+06u l=400000u
X259 vss a_n8725_5937# a_n8557_5937# vss sky130_fd_pr__nfet_01v8 ad=0p pd=0u as=5.265e+11p ps=5.52e+06u w=650000u l=150000u
X260 a_1913_15050# a_8564_4527# a_8564_3671# vdd sky130_fd_pr__pfet_01v8_lvt ad=0p pd=0u as=0p ps=0u w=1e+06u l=4e+06u
X261 a_n10687_9719# a_n10749_11377# vss vss sky130_fd_pr__nfet_01v8 ad=0p pd=0u as=0p ps=0u w=650000u l=150000u
X262 a_n10749_11377# in0 vdd vdd sky130_fd_pr__pfet_01v8_hvt ad=0p pd=0u as=0p ps=0u w=1e+06u l=150000u
X263 a_8564_3671# bias a_1911_8558# vss sky130_fd_pr__nfet_01v8_lvt ad=0p pd=0u as=0p ps=0u w=2e+06u l=4e+06u
X264 a_n2111_6738# a_n2387_6738# vss vss sky130_fd_pr__nfet_01v8_lvt ad=2.9e+11p pd=2.58e+06u as=0p ps=0u w=1e+06u l=400000u
X265 vdd vdd vdd vdd sky130_fd_pr__pfet_01v8_lvt ad=0p pd=0u as=0p ps=0u w=1e+06u l=4e+06u
X266 vdd a_1410_10413# a_1410_10413# vdd sky130_fd_pr__pfet_01v8_lvt ad=0p pd=0u as=0p ps=0u w=1e+06u l=1e+06u