* NGSPICE file created from main.ext - technology: sky130A

.subckt main dvdd en_ldo_dig avdd rstn vdd vss en_ldo_ana clksys en_clk_int clkext ibp_3_ ibp_2_
+ ibp_1_ ibp_0_ ibn_1_ ibn_0_ en_clkdiv clksel refsel vbg_ext avss dvss tbout bgtrim_15_ bgtrim_14_
+ bgtrim_13_ bgtrim_12_ bgtrim_11_ bgtrim_10_ bgtrim_9_ bgtrim_8_ bgtrim_7_ bgtrim_6_ bgtrim_5_ bgtrim_4_
+ bgtrim_3_ bgtrim_2_ bgtrim_1_ bgtrim_0_ tbctl_2_ tbctl_1_ tbctl_0_

Rconn1 avss vss 0.01
Rconn2 dvss vss 0.01

X0 a_29435_30536# a_30910_30664# vss sky130_fd_pr__res_high_po w=1.41e+06u l=2.8e+06u
X1 a_9506_17973# a_8302_16888# a_9448_14814# vss sky130_fd_pr__nfet_01v8_lvt ad=9.28e+12p pd=8.256e+07u as=9.28e+12p ps=8.256e+07u w=1e+06u l=500000u
X2 a_16019_26544# a_7257_35054# a_7080_26645# vss sky130_fd_pr__nfet_01v8_lvt ad=1.16e+12p pd=1.032e+07u as=4.64e+12p ps=4.128e+07u w=1e+06u l=4e+06u
X3 vdd vss vdd vdd sky130_fd_pr__pfet_01v8_hvt ad=2.42759e+14p pd=2.04143e+09u as=0p ps=0u w=870000u l=1.05e+06u
X4 vss vss vss vss sky130_fd_pr__nfet_01v8_lvt ad=1.66245e+14p pd=1.47076e+09u as=0p ps=0u w=2e+06u l=4e+06u
X5 vdd a_14147_17413# vdd vdd sky130_fd_pr__pfet_01v8_lvt ad=0p pd=0u as=0p ps=0u w=500000u l=2e+06u
X6 a_21533_59718# a_21333_59018# vdd vdd sky130_fd_pr__pfet_01v8_lvt ad=6.38e+12p pd=5.676e+07u as=0p ps=0u w=1e+06u l=1e+06u
X7 a_27549_7238# ibn_0_ avdd avdd sky130_fd_pr__pfet_01v8 ad=2.32e+12p pd=2.064e+07u as=4.582e+13p ps=3.3862e+08u w=1e+06u l=1e+06u
X8 vdd vdd vdd vdd sky130_fd_pr__pfet_01v8_lvt ad=0p pd=0u as=0p ps=0u w=1e+06u l=1e+06u
X9 vss ibp_2_ ibp_2_ vss sky130_fd_pr__nfet_01v8_lvt ad=0p pd=0u as=2.61e+12p ps=2.322e+07u w=1e+06u l=1e+06u
X10 a_8302_16888# a_8302_16888# vss vss sky130_fd_pr__nfet_01v8_lvt ad=2.61e+12p pd=2.322e+07u as=0p ps=0u w=1e+06u l=500000u
X11 vdd vdd vdd vdd sky130_fd_pr__pfet_01v8_lvt ad=0p pd=0u as=0p ps=0u w=1e+06u l=1e+06u
X12 a_39286_5164# a_38770_5164# a_39191_5164# vss sky130_fd_pr__nfet_01v8 ad=1.188e+11p pd=1.38e+06u as=1.32e+11p ps=1.49e+06u w=360000u l=150000u
X13 vdd a_9033_7909# avdd vdd sky130_fd_pr__pfet_01v8_lvt ad=0p pd=0u as=0p ps=0u w=8e+06u l=500000u
X14 a_17509_48421# a_17233_48421# vss vss sky130_fd_pr__nfet_01v8_lvt ad=2.9e+11p pd=2.58e+06u as=0p ps=0u w=1e+06u l=400000u
X15 vss a_10180_18527# a_16196_13967# vss sky130_fd_pr__nfet_01v8_lvt ad=0p pd=0u as=5.8e+11p ps=6.32e+06u w=500000u l=4e+06u
X16 vdd a_14147_17413# a_23557_19518# vdd sky130_fd_pr__pfet_01v8_lvt ad=0p pd=0u as=2.9e+11p ps=3.16e+06u w=500000u l=2e+06u
X17 vss vss vss vss sky130_fd_pr__nfet_01v8_lvt ad=0p pd=0u as=0p ps=0u w=1e+06u l=1e+06u
X18 vdd a_10803_51693# a_8735_54512# vdd sky130_fd_pr__pfet_01v8_hvt ad=0p pd=0u as=8.1e+11p ps=7.62e+06u w=1e+06u l=150000u
X19 a_9785_4482# ibp_1_ a_9785_4482# vss sky130_fd_pr__nfet_01v8_lvt ad=4.64e+12p pd=4.128e+07u as=0p ps=0u w=1e+06u l=1e+06u
X20 vss a_21272_47107# a_21531_51763# vss sky130_fd_pr__nfet_01v8_lvt ad=0p pd=0u as=1.624e+13p ps=1.352e+08u w=1e+06u l=1e+06u
X21 a_21272_47107# ibp_0_ ibp_0_ vss sky130_fd_pr__nfet_01v8_lvt ad=2.9e+12p pd=2.406e+07u as=1.16e+12p ps=9.16e+06u w=2e+06u l=4e+06u
X22 a_9727_51399# a_9697_51123# a_9473_51399# vdd sky130_fd_pr__pfet_01v8_hvt ad=8.3e+11p pd=7.66e+06u as=8.3e+11p ps=7.66e+06u w=1e+06u l=150000u
X23 a_46660_5972# a_46036_5606# a_46552_5606# dvdd sky130_fd_pr__pfet_01v8_hvt ad=3.402e+11p pd=3.3e+06u as=1.449e+11p ps=1.53e+06u w=420000u l=150000u
X24 vss vss vss vss sky130_fd_pr__nfet_01v8_lvt ad=0p pd=0u as=0p ps=0u w=1e+06u l=1e+06u
X25 vdd vdd vdd vdd sky130_fd_pr__pfet_01v8_lvt ad=0p pd=0u as=0p ps=0u w=1e+06u l=1e+06u
X26 a_47409_7016# a_46031_4206# a_46897_6668# dvdd sky130_fd_pr__pfet_01v8_hvt ad=1.344e+11p pd=1.7e+06u as=2.624e+11p ps=2.1e+06u w=640000u l=150000u
X27 a_28184_49195# a_28184_49195# a_21333_59018# vdd sky130_fd_pr__pfet_01v8_lvt ad=4.06e+12p pd=3.612e+07u as=6.38e+12p ps=5.676e+07u w=1e+06u l=4e+06u
X28 dvdd a_46031_5294# a_46036_5068# dvdd sky130_fd_pr__pfet_01v8_hvt ad=5.7007e+13p pd=4.5023e+08u as=1.664e+11p ps=1.8e+06u w=640000u l=150000u
X29 a_29435_33716# bgtrim_8_ a_29277_29476# vss sky130_fd_pr__nfet_01v8 ad=5.8e+11p pd=4.58e+06u as=9.28e+12p ps=7.328e+07u w=2e+06u l=500000u
X30 vdd en_ldo_dig a_40013_15426# vdd sky130_fd_pr__pfet_01v8_lvt ad=0p pd=0u as=1.74e+12p ps=1.548e+07u w=1e+06u l=400000u
X31 dvdd a_46031_4206# a_46036_3980# dvdd sky130_fd_pr__pfet_01v8_hvt ad=0p pd=0u as=1.664e+11p ps=1.8e+06u w=640000u l=150000u
X32 ibp_2_ ibp_2_ ibp_2_ vss sky130_fd_pr__nfet_01v8_lvt ad=0p pd=0u as=0p ps=0u w=1e+06u l=1e+06u
X33 vss a_9183_51693# a_10895_50605# vss sky130_fd_pr__nfet_01v8 ad=0p pd=0u as=1.755e+11p ps=1.84e+06u w=650000u l=150000u
X34 a_21333_59018# a_28184_49195# a_28184_49195# vdd sky130_fd_pr__pfet_01v8_lvt ad=0p pd=0u as=0p ps=0u w=1e+06u l=4e+06u
X35 dvdd a_46770_5848# a_46660_5972# dvdd sky130_fd_pr__pfet_01v8_hvt ad=0p pd=0u as=0p ps=0u w=420000u l=150000u
X36 a_8735_54512# a_10803_51693# vss vss sky130_fd_pr__nfet_01v8 ad=5.265e+11p pd=5.52e+06u as=0p ps=0u w=650000u l=150000u
X37 a_29435_36896# a_30910_37024# vss sky130_fd_pr__res_high_po w=1.41e+06u l=2.8e+06u
X38 a_7767_39565# a_7028_39565# vbg_ext vdd sky130_fd_pr__pfet_01v8 ad=8.7e+11p pd=7.74e+06u as=2.9e+11p ps=2.58e+06u w=1e+06u l=500000u
X39 a_9039_52781# a_8871_52781# vss vss sky130_fd_pr__nfet_01v8 ad=5.265e+11p pd=5.52e+06u as=0p ps=0u w=650000u l=150000u
X40 ibp_2_ ibp_2_ vss vss sky130_fd_pr__nfet_01v8_lvt ad=0p pd=0u as=0p ps=0u w=1e+06u l=1e+06u
X41 a_16019_27456# a_10506_15694# a_15161_31718# vdd sky130_fd_pr__pfet_01v8_lvt ad=2.32e+12p pd=1.832e+07u as=9.28e+12p ps=7.328e+07u w=2e+06u l=4e+06u
X42 a_6633_29468# a_6949_30834# a_7149_30931# vdd sky130_fd_pr__pfet_01v8_lvt ad=1.827e+13p pd=1.3818e+08u as=4.64e+12p ps=3.432e+07u w=4e+06u l=1e+06u
X43 vdd vdd vdd vdd sky130_fd_pr__pfet_01v8_lvt ad=0p pd=0u as=0p ps=0u w=1e+06u l=1e+06u
X44 a_14147_17413# a_14147_17185# vdd vdd sky130_fd_pr__pfet_01v8_lvt ad=5.8e+11p pd=6.32e+06u as=0p ps=0u w=500000u l=1e+07u
X45 a_7149_30931# a_6880_26619# vss vss sky130_fd_pr__nfet_01v8_lvt ad=4.64e+12p pd=4.128e+07u as=0p ps=0u w=1e+06u l=1e+06u
X46 vdd vdd vdd vdd sky130_fd_pr__pfet_01v8_lvt ad=0p pd=0u as=0p ps=0u w=2e+06u l=4e+06u
X47 a_7767_39565# a_8742_39565# a_9047_39565# vss sky130_fd_pr__nfet_01v8 ad=8.7e+11p pd=7.74e+06u as=2.9e+11p ps=2.58e+06u w=1e+06u l=500000u
X48 a_27033_7238# ibn_0_ avdd avdd sky130_fd_pr__pfet_01v8 ad=4.64e+12p pd=4.128e+07u as=0p ps=0u w=1e+06u l=1e+06u
X49 a_36712_33396# a_36326_36428# vss sky130_fd_pr__res_xhigh_po w=690000u l=1.3e+07u
X50 vss a_27549_7238# a_27549_7238# vss sky130_fd_pr__nfet_01v8 ad=0p pd=0u as=1.74e+12p ps=1.548e+07u w=1e+06u l=1e+06u
X51 a_7257_35054# a_7257_35054# a_7257_35054# vss sky130_fd_pr__nfet_01v8_lvt ad=2.9e+12p pd=2.58e+07u as=0p ps=0u w=1e+06u l=4e+06u
X52 vss a_6880_26619# a_7080_26645# vss sky130_fd_pr__nfet_01v8_lvt ad=0p pd=0u as=0p ps=0u w=1e+06u l=1e+06u
X53 a_14147_17413# a_14605_15614# sky130_fd_pr__cap_mim_m3_1 l=5e+06u w=5e+06u
X54 vdd a_8735_54512# a_10773_52781# vdd sky130_fd_pr__pfet_01v8_hvt ad=0p pd=0u as=8.3e+11p ps=7.66e+06u w=1e+06u l=150000u
X55 a_10533_55475# a_8735_54512# vss vss sky130_fd_pr__nfet_01v8 ad=5.265e+11p pd=5.52e+06u as=0p ps=0u w=650000u l=150000u
X56 dvdd a_40013_15426# vdd vdd sky130_fd_pr__pfet_01v8_lvt ad=0p pd=0u as=0p ps=0u w=8e+06u l=500000u
X57 a_9340_13770# vss vss sky130_fd_pr__res_xhigh_po w=350000u l=7e+06u
X58 a_9033_7909# en_ldo_ana vdd vdd sky130_fd_pr__pfet_01v8_lvt ad=1.74e+12p pd=1.548e+07u as=0p ps=0u w=1e+06u l=400000u
X59 a_16019_26544# a_10506_15694# a_15161_30727# vdd sky130_fd_pr__pfet_01v8_lvt ad=6.96e+12p pd=5.496e+07u as=9.28e+12p ps=7.328e+07u w=2e+06u l=4e+06u
X60 a_21531_53226# a_21272_47107# vss vss sky130_fd_pr__nfet_01v8_lvt ad=1.624e+13p pd=1.352e+08u as=0p ps=0u w=1e+06u l=1e+06u
X61 dvdd a_40013_15426# vdd vdd sky130_fd_pr__pfet_01v8_lvt ad=0p pd=0u as=0p ps=0u w=8e+06u l=500000u
X62 vss a_21272_47107# a_21531_53226# vss sky130_fd_pr__nfet_01v8_lvt ad=0p pd=0u as=0p ps=0u w=1e+06u l=1e+06u
X63 vdd a_16019_26544# a_15161_30727# vdd sky130_fd_pr__pfet_01v8_lvt ad=0p pd=0u as=0p ps=0u w=2e+06u l=4e+06u
X64 a_39504_5406# a_39286_5164# vss vss sky130_fd_pr__nfet_01v8 ad=1.998e+11p pd=1.97e+06u as=0p ps=0u w=640000u l=150000u
X65 vss a_10117_54413# a_10283_54413# vss sky130_fd_pr__nfet_01v8 ad=0p pd=0u as=3.51e+11p ps=3.68e+06u w=650000u l=150000u
X66 a_29277_29476# bgtrim_13_ a_30910_35964# vss sky130_fd_pr__nfet_01v8 ad=0p pd=0u as=5.8e+11p ps=4.58e+06u w=2e+06u l=500000u
X67 a_46770_4760# a_46552_4518# vss vss sky130_fd_pr__nfet_01v8 ad=1.998e+11p pd=1.97e+06u as=0p ps=0u w=640000u l=150000u
X68 a_9785_4482# ibp_1_ a_9785_4482# vss sky130_fd_pr__nfet_01v8_lvt ad=0p pd=0u as=0p ps=0u w=1e+06u l=1e+06u
X69 vdd a_21333_59018# a_21333_59018# vdd sky130_fd_pr__pfet_01v8_lvt ad=0p pd=0u as=0p ps=0u w=1e+06u l=1e+06u
X70 vss ibp_1_ ibp_1_ vss sky130_fd_pr__nfet_01v8_lvt ad=0p pd=0u as=2.61e+12p ps=2.322e+07u w=1e+06u l=1e+06u
X71 avdd a_9033_7909# sky130_fd_pr__cap_mim_m3_1 l=5e+06u w=5e+06u
X72 a_29267_5405# a_27549_7238# vss vss sky130_fd_pr__nfet_01v8 ad=3.19e+12p pd=2.838e+07u as=0p ps=0u w=1e+06u l=1e+06u
X73 vss a_27549_7238# a_27549_7238# vss sky130_fd_pr__nfet_01v8 ad=0p pd=0u as=0p ps=0u w=1e+06u l=1e+06u
X74 vdd vdd vdd vdd sky130_fd_pr__pfet_01v8_lvt ad=0p pd=0u as=0p ps=0u w=1e+06u l=1e+06u
X75 vss vss vss vss sky130_fd_pr__nfet_01v8_lvt ad=0p pd=0u as=0p ps=0u w=1e+06u l=1e+06u
X76 a_9371_53985# a_8861_54387# vdd vdd sky130_fd_pr__pfet_01v8_hvt ad=1.092e+11p pd=1.36e+06u as=0p ps=0u w=420000u l=150000u
X77 vss a_21272_47107# a_21088_54984# vss sky130_fd_pr__nfet_01v8_lvt ad=0p pd=0u as=1.16e+12p ps=1.032e+07u w=1e+06u l=1e+06u
X78 vdd a_10803_51693# a_8735_54512# vdd sky130_fd_pr__pfet_01v8_hvt ad=0p pd=0u as=0p ps=0u w=1e+06u l=150000u
X79 vdd a_16019_26544# a_15161_30727# vdd sky130_fd_pr__pfet_01v8_lvt ad=0p pd=0u as=0p ps=0u w=2e+06u l=4e+06u
X80 dvdd a_40013_15426# vdd vdd sky130_fd_pr__pfet_01v8_lvt ad=0p pd=0u as=0p ps=0u w=8e+06u l=500000u
X81 vdd a_10287_50605# a_11129_51149# vdd sky130_fd_pr__pfet_01v8_hvt ad=0p pd=0u as=2.054e+11p ps=2.1e+06u w=790000u l=150000u
X82 a_21030_55081# a_21088_54984# a_21088_54984# vdd sky130_fd_pr__pfet_01v8_lvt ad=1.45e+12p pd=1.29e+07u as=5.8e+11p ps=5.16e+06u w=1e+06u l=4e+06u
X83 vss vss vss vss sky130_fd_pr__nfet_01v8_lvt ad=0p pd=0u as=0p ps=0u w=1e+06u l=1e+06u
X84 avdd a_9033_7909# vdd vdd sky130_fd_pr__pfet_01v8_lvt ad=0p pd=0u as=0p ps=0u w=8e+06u l=500000u
X85 a_16534_48421# a_16071_51406# dvdd vss sky130_fd_pr__nfet_01v8 ad=2.32e+12p pd=2.064e+07u as=1.04237e+13p ps=1.2588e+08u w=1e+06u l=500000u
X86 a_21230_16137# a_21230_16137# a_22146_16137# vss sky130_fd_pr__nfet_01v8_lvt ad=2.32e+12p pd=2.064e+07u as=1.16e+12p ps=1.032e+07u w=1e+06u l=2e+06u
X87 vss vss vss vss sky130_fd_pr__nfet_01v8_lvt ad=0p pd=0u as=0p ps=0u w=1e+06u l=1e+06u
X88 vdd a_21030_55081# a_21030_55081# vdd sky130_fd_pr__pfet_01v8_lvt ad=0p pd=0u as=0p ps=0u w=1e+06u l=1e+06u
X89 tbout a_28184_48339# vdd vdd sky130_fd_pr__pfet_01v8_lvt ad=3.48e+12p pd=2.574e+07u as=0p ps=0u w=4e+06u l=4e+06u
X90 a_28184_48339# a_28184_48339# a_28184_48339# vdd sky130_fd_pr__pfet_01v8_lvt ad=4.06e+12p pd=3.612e+07u as=0p ps=0u w=1e+06u l=4e+06u
X91 vdd vss vdd vdd sky130_fd_pr__pfet_01v8_hvt ad=0p pd=0u as=0p ps=0u w=870000u l=2.89e+06u
X92 a_9033_6762# en_ldo_ana vdd vdd sky130_fd_pr__pfet_01v8_lvt ad=2.9e+11p pd=2.58e+06u as=0p ps=0u w=1e+06u l=400000u
X93 a_43124_15781# a_37846_16790# a_40013_15754# vss sky130_fd_pr__nfet_01v8_lvt ad=4.64e+12p pd=4.128e+07u as=2.03e+12p ps=1.806e+07u w=1e+06u l=1e+06u
X94 a_22146_16137# a_22146_16137# vss vss sky130_fd_pr__nfet_01v8_lvt ad=0p pd=0u as=0p ps=0u w=1e+06u l=2e+06u
X95 a_11221_50213# a_11129_51149# vdd vdd sky130_fd_pr__pfet_01v8_hvt ad=2.054e+11p pd=2.1e+06u as=0p ps=0u w=790000u l=150000u
X96 avdd a_9033_7909# sky130_fd_pr__cap_mim_m3_1 l=5e+06u w=5e+06u
X97 a_46247_6846# clksel vss vss sky130_fd_pr__nfet_01v8 ad=1.134e+11p pd=1.38e+06u as=0p ps=0u w=420000u l=150000u
X98 vdd vdd vdd vdd sky130_fd_pr__pfet_01v8_lvt ad=0p pd=0u as=0p ps=0u w=2e+06u l=4e+06u
X99 a_21531_51763# a_21272_47107# vss vss sky130_fd_pr__nfet_01v8_lvt ad=0p pd=0u as=0p ps=0u w=1e+06u l=1e+06u
X100 vdd vdd vdd vdd sky130_fd_pr__pfet_01v8_lvt ad=0p pd=0u as=0p ps=0u w=2e+06u l=4e+06u
X101 vdd a_11221_50061# a_11398_50061# vdd sky130_fd_pr__pfet_01v8_hvt ad=0p pd=0u as=2.7e+11p ps=2.54e+06u w=1e+06u l=150000u
X102 a_16534_48421# a_16071_57376# avdd vss sky130_fd_pr__nfet_01v8 ad=0p pd=0u as=1.75807e+13p ps=2.06e+08u w=1e+06u l=500000u
X103 ibp_2_ ibp_2_ ibp_2_ vss sky130_fd_pr__nfet_01v8_lvt ad=0p pd=0u as=0p ps=0u w=1e+06u l=1e+06u
X104 a_16071_54391# a_15795_54391# vdd vdd sky130_fd_pr__pfet_01v8_lvt ad=2.9e+11p pd=2.58e+06u as=0p ps=0u w=1e+06u l=400000u
X105 vss vss vss vss sky130_fd_pr__nfet_01v8_lvt ad=0p pd=0u as=0p ps=0u w=1e+06u l=4e+06u
X106 vdd a_21333_59018# a_21333_59018# vdd sky130_fd_pr__pfet_01v8_lvt ad=0p pd=0u as=0p ps=0u w=1e+06u l=1e+06u
X107 dvdd vss dvdd dvdd sky130_fd_pr__pfet_01v8_hvt ad=0p pd=0u as=0p ps=0u w=870000u l=1.05e+06u
X108 a_47279_3974# a_46202_3980# a_47117_4352# dvdd sky130_fd_pr__pfet_01v8_hvt ad=1.134e+11p pd=1.38e+06u as=1.176e+11p ps=1.4e+06u w=420000u l=150000u
X109 dvdd a_40013_15426# vdd vdd sky130_fd_pr__pfet_01v8_lvt ad=0p pd=0u as=0p ps=0u w=8e+06u l=500000u
X110 a_21257_48618# a_21272_47107# vss vss sky130_fd_pr__nfet_01v8_lvt ad=1.044e+13p pd=8.476e+07u as=0p ps=0u w=1e+06u l=1e+06u
X111 a_21533_59718# a_16534_48421# a_21257_48618# vss sky130_fd_pr__nfet_01v8_lvt ad=2.32e+12p pd=1.832e+07u as=0p ps=0u w=2e+06u l=1e+06u
X112 vss dvdd vss vss sky130_fd_pr__nfet_01v8 ad=0p pd=0u as=0p ps=0u w=550000u l=1.05e+06u
X113 vdd a_9033_7909# avdd vdd sky130_fd_pr__pfet_01v8_lvt ad=0p pd=0u as=0p ps=0u w=8e+06u l=500000u
X114 vdd a_9091_54413# a_9473_54965# vdd sky130_fd_pr__pfet_01v8_hvt ad=0p pd=0u as=1.664e+11p ps=1.8e+06u w=640000u l=150000u
X115 a_21015_51763# a_16534_48421# a_21531_53226# vdd sky130_fd_pr__pfet_01v8_lvt ad=1.856e+13p pd=1.4076e+08u as=4.64e+12p ps=3.432e+07u w=4e+06u l=1e+06u
X116 vss a_21272_47107# a_21531_51763# vss sky130_fd_pr__nfet_01v8_lvt ad=0p pd=0u as=0p ps=0u w=1e+06u l=1e+06u
X117 vb_6_ a_32117_14563# vss sky130_fd_pr__res_xhigh_po w=690000u l=2.58e+07u
X118 a_7973_17910# a_7973_17910# a_7909_15880# vdd sky130_fd_pr__pfet_01v8_lvt ad=1.45e+11p pd=1.58e+06u as=1.45e+11p ps=1.58e+06u w=500000u l=1e+06u
X119 a_29435_33716# a_30910_32784# vss sky130_fd_pr__res_high_po w=1.41e+06u l=2.8e+06u
X120 a_17146_5558# a_16724_7690# vss sky130_fd_pr__res_xhigh_po w=350000u l=8.5e+06u
X121 vss a_9697_51123# a_9521_52211# vss sky130_fd_pr__nfet_01v8 ad=0p pd=0u as=5.265e+11p ps=5.52e+06u w=650000u l=150000u
X122 a_9506_17973# a_8302_16888# a_9448_14814# vss sky130_fd_pr__nfet_01v8_lvt ad=0p pd=0u as=0p ps=0u w=1e+06u l=500000u
X123 vdd a_14147_17413# a_14605_15614# vdd sky130_fd_pr__pfet_01v8_lvt ad=0p pd=0u as=1.16e+12p ps=1.264e+07u w=500000u l=2e+06u
R0 vss vss sky130_fd_pr__res_generic_m4 w=9.6e+06u l=4e+06u
X124 a_21333_59018# a_28184_49195# a_28184_49195# vdd sky130_fd_pr__pfet_01v8_lvt ad=0p pd=0u as=0p ps=0u w=1e+06u l=4e+06u
X125 a_48035_5606# a_47856_5606# dvdd dvdd sky130_fd_pr__pfet_01v8_hvt ad=2.6e+11p pd=2.52e+06u as=0p ps=0u w=1e+06u l=150000u
X126 vdd a_14147_17413# vdd vdd sky130_fd_pr__pfet_01v8_lvt ad=0p pd=0u as=0p ps=0u w=500000u l=2e+06u
X127 a_21531_51763# ibp_0_ a_28184_49195# vss sky130_fd_pr__nfet_01v8_lvt ad=0p pd=0u as=8.12e+12p ps=6.412e+07u w=2e+06u l=4e+06u
X128 vdd a_21333_59018# a_21333_59018# vdd sky130_fd_pr__pfet_01v8_lvt ad=0p pd=0u as=0p ps=0u w=1e+06u l=1e+06u
X129 a_21531_51763# ibp_0_ a_28184_49195# vss sky130_fd_pr__nfet_01v8_lvt ad=0p pd=0u as=0p ps=0u w=2e+06u l=4e+06u
X130 a_16019_27456# vss sky130_fd_pr__cap_mim_m3_1 l=1e+07u w=1e+07u
X131 a_7057_34366# a_7057_34366# vdd vdd sky130_fd_pr__pfet_01v8_lvt ad=1.74e+12p pd=1.432e+07u as=0p ps=0u w=1e+06u l=1e+06u
X132 vss a_21272_47107# a_21531_51763# vss sky130_fd_pr__nfet_01v8_lvt ad=0p pd=0u as=0p ps=0u w=1e+06u l=1e+06u
X133 vdd vdd vdd vdd sky130_fd_pr__pfet_01v8_lvt ad=0p pd=0u as=0p ps=0u w=1e+06u l=1e+06u
X134 a_46340_4145# a_46031_4670# vss vss sky130_fd_pr__nfet_01v8 ad=1.69e+11p pd=1.82e+06u as=0p ps=0u w=650000u l=150000u
X135 a_7257_35054# a_7257_35054# a_7257_35054# vss sky130_fd_pr__nfet_01v8_lvt ad=0p pd=0u as=0p ps=0u w=1e+06u l=4e+06u
X136 a_21257_48618# a_16534_48421# a_21533_59718# vss sky130_fd_pr__nfet_01v8_lvt ad=0p pd=0u as=0p ps=0u w=2e+06u l=1e+06u
X137 vdd a_8871_56045# a_8933_54387# vdd sky130_fd_pr__pfet_01v8_hvt ad=0p pd=0u as=8.1e+11p ps=7.62e+06u w=1e+06u l=150000u
X138 a_8819_54413# a_8735_54512# a_8737_54413# vss sky130_fd_pr__nfet_01v8 ad=8.82e+10p pd=1.26e+06u as=1.092e+11p ps=1.36e+06u w=420000u l=150000u
X139 w_42506_30499# w_42506_30499# vdd vdd sky130_fd_pr__pfet_01v8 ad=5.8e+11p pd=5.16e+06u as=0p ps=0u w=1e+06u l=1e+06u
X140 a_16534_48421# a_17509_51406# vb_4_ vss sky130_fd_pr__nfet_01v8 ad=0p pd=0u as=2.9e+11p ps=2.58e+06u w=1e+06u l=500000u
X141 a_17509_54391# a_17233_54391# vss vss sky130_fd_pr__nfet_01v8_lvt ad=2.9e+11p pd=2.58e+06u as=0p ps=0u w=1e+06u l=400000u
X142 a_8302_16888# a_8302_16888# vss vss sky130_fd_pr__nfet_01v8_lvt ad=0p pd=0u as=0p ps=0u w=1e+06u l=500000u
X143 a_21793_20190# a_14147_17413# vdd vdd sky130_fd_pr__pfet_01v8_lvt ad=2.9e+11p pd=3.16e+06u as=0p ps=0u w=500000u l=2e+06u
X144 vdd a_21030_55081# a_21015_51763# vdd sky130_fd_pr__pfet_01v8_lvt ad=0p pd=0u as=0p ps=0u w=1e+06u l=1e+06u
X145 vss ibp_2_ a_43124_15781# vss sky130_fd_pr__nfet_01v8_lvt ad=0p pd=0u as=0p ps=0u w=1e+06u l=1e+06u
X146 vss a_10197_55475# a_10227_55501# vss sky130_fd_pr__nfet_01v8 ad=0p pd=0u as=3.51e+11p ps=3.68e+06u w=650000u l=150000u
X147 a_8302_16888# a_9506_17973# vdd vdd sky130_fd_pr__pfet_01v8_lvt ad=2.32e+12p pd=2.064e+07u as=0p ps=0u w=1e+06u l=1e+06u
X148 vdd a_14147_17413# a_14605_15614# vdd sky130_fd_pr__pfet_01v8_lvt ad=0p pd=0u as=0p ps=0u w=500000u l=2e+06u
X149 vss a_6880_26619# a_7080_26645# vss sky130_fd_pr__nfet_01v8_lvt ad=0p pd=0u as=0p ps=0u w=1e+06u l=1e+06u
X150 vdd vdd vdd vdd sky130_fd_pr__pfet_01v8_lvt ad=0p pd=0u as=0p ps=0u w=1e+06u l=1e+06u
X151 vdd vdd vdd vdd sky130_fd_pr__pfet_01v8_lvt ad=0p pd=0u as=0p ps=0u w=1e+06u l=1e+06u
X152 a_9567_53869# a_8735_54512# vss vss sky130_fd_pr__nfet_01v8 ad=5.265e+11p pd=5.52e+06u as=0p ps=0u w=650000u l=150000u
X153 a_33084_6373# a_33004_6347# a_29267_5405# vss sky130_fd_pr__nfet_01v8_lvt ad=2.9e+11p pd=2.58e+06u as=0p ps=0u w=1e+06u l=400000u
X154 vdd a_14147_17413# a_14605_15614# vdd sky130_fd_pr__pfet_01v8_lvt ad=0p pd=0u as=0p ps=0u w=500000u l=2e+06u
X155 a_33004_6347# a_35079_6373# a_29267_5405# vss sky130_fd_pr__nfet_01v8_lvt ad=2.9e+11p pd=2.58e+06u as=0p ps=0u w=1e+06u l=400000u
X156 a_16534_48421# a_17509_57376# vdd vss sky130_fd_pr__nfet_01v8 ad=0p pd=0u as=2.61908e+14p ps=3.08131e+09u w=1e+06u l=500000u
X157 avdd ibn_0_ a_27549_7238# avdd sky130_fd_pr__pfet_01v8 ad=0p pd=0u as=0p ps=0u w=1e+06u l=1e+06u
X158 a_7080_26645# a_6880_26619# vss vss sky130_fd_pr__nfet_01v8_lvt ad=0p pd=0u as=0p ps=0u w=1e+06u l=1e+06u
X159 a_11926_4549# a_12242_4494# a_9785_4482# vss sky130_fd_pr__nfet_01v8_lvt ad=2.03e+12p pd=1.806e+07u as=0p ps=0u w=1e+06u l=1e+06u
X160 vdd a_9033_7909# avdd vdd sky130_fd_pr__pfet_01v8_lvt ad=0p pd=0u as=0p ps=0u w=8e+06u l=500000u
X161 vss vss vss vss sky130_fd_pr__nfet_01v8_lvt ad=0p pd=0u as=0p ps=0u w=1e+06u l=4e+06u
X162 vdd a_9105_50837# a_9105_50605# vdd sky130_fd_pr__pfet_01v8_hvt ad=0p pd=0u as=2.054e+11p ps=2.1e+06u w=790000u l=150000u
X163 vss a_9013_51925# a_9013_51693# vss sky130_fd_pr__nfet_01v8 ad=0p pd=0u as=1.352e+11p ps=1.56e+06u w=520000u l=150000u
X164 a_9091_54413# a_8737_54413# vss vss sky130_fd_pr__nfet_01v8 ad=1.69e+11p pd=1.82e+06u as=0p ps=0u w=650000u l=150000u
X165 vdd vdd vdd vdd sky130_fd_pr__pfet_01v8_lvt ad=0p pd=0u as=0p ps=0u w=2e+06u l=4e+06u
X166 vdd vss vdd vdd sky130_fd_pr__pfet_01v8_hvt ad=0p pd=0u as=0p ps=0u w=870000u l=1.05e+06u
X167 a_10073_52389# a_10346_52217# vdd vdd sky130_fd_pr__pfet_01v8_hvt ad=2.5725e+11p pd=2.99e+06u as=0p ps=0u w=420000u l=150000u
X168 vss vss vss vss sky130_fd_pr__nfet_01v8_lvt ad=0p pd=0u as=0p ps=0u w=1e+06u l=1e+06u
X169 a_47292_4278# rstn dvdd dvdd sky130_fd_pr__pfet_01v8_hvt ad=1.134e+11p pd=1.38e+06u as=0p ps=0u w=420000u l=150000u
X170 vdd a_7057_34366# a_6633_29468# vdd sky130_fd_pr__pfet_01v8_lvt ad=0p pd=0u as=0p ps=0u w=1e+06u l=1e+06u
X171 a_28184_48339# ibp_0_ a_21531_53226# vss sky130_fd_pr__nfet_01v8_lvt ad=8.12e+12p pd=6.412e+07u as=0p ps=0u w=2e+06u l=4e+06u
X172 vss vdd vss vss sky130_fd_pr__nfet_01v8 ad=0p pd=0u as=0p ps=0u w=550000u l=1.05e+06u
X173 ibn_1_ a_21230_16137# ibn_1_ vss sky130_fd_pr__nfet_01v8_lvt ad=2.32e+12p pd=2.064e+07u as=0p ps=0u w=1e+06u l=2e+06u
X174 ibn_1_ a_21230_16137# a_23062_17193# vss sky130_fd_pr__nfet_01v8_lvt ad=0p pd=0u as=2.9e+11p ps=2.58e+06u w=1e+06u l=2e+06u
X175 dvdd a_47292_4278# a_47856_3974# dvdd sky130_fd_pr__pfet_01v8_hvt ad=0p pd=0u as=1.664e+11p ps=1.8e+06u w=640000u l=150000u
X176 a_7080_26645# a_6949_29442# a_6633_29468# vdd sky130_fd_pr__pfet_01v8_lvt ad=4.64e+12p pd=3.432e+07u as=0p ps=0u w=4e+06u l=1e+06u
X177 vss a_21230_16137# vss vss sky130_fd_pr__nfet_01v8_lvt ad=0p pd=0u as=0p ps=0u w=1e+06u l=2e+06u
X178 a_10180_18527# a_9506_17973# vdd vdd sky130_fd_pr__pfet_01v8_lvt ad=5.8e+11p pd=5.16e+06u as=0p ps=0u w=1e+06u l=1e+06u
X179 a_23062_17193# a_22146_16137# vss vss sky130_fd_pr__nfet_01v8_lvt ad=0p pd=0u as=0p ps=0u w=1e+06u l=2e+06u
X180 a_15161_30727# a_10506_15694# a_16019_26544# vdd sky130_fd_pr__pfet_01v8_lvt ad=0p pd=0u as=0p ps=0u w=2e+06u l=4e+06u
X181 a_9936_52053# a_9039_52781# a_9855_52053# vss sky130_fd_pr__nfet_01v8 ad=8.82e+10p pd=1.26e+06u as=1.071e+11p ps=1.35e+06u w=420000u l=150000u
X182 vdd vss vdd vdd sky130_fd_pr__pfet_01v8_hvt ad=0p pd=0u as=0p ps=0u w=870000u l=1.05e+06u
X183 vb_0_ a_32117_20471# vss sky130_fd_pr__res_xhigh_po w=690000u l=2.58e+07u
X184 avdd a_9033_7909# vdd vdd sky130_fd_pr__pfet_01v8_lvt ad=0p pd=0u as=0p ps=0u w=8e+06u l=500000u
X185 a_16196_13967# a_10180_18527# a_15338_13967# vss sky130_fd_pr__nfet_01v8_lvt ad=0p pd=0u as=1.16e+12p ps=1.264e+07u w=500000u l=4e+06u
X186 vss vss vss vss sky130_fd_pr__nfet_01v8_lvt ad=0p pd=0u as=0p ps=0u w=1e+06u l=1e+06u
X187 vss a_10895_50605# a_11063_50605# vss sky130_fd_pr__nfet_01v8 ad=0p pd=0u as=5.265e+11p ps=5.52e+06u w=650000u l=150000u
X188 vdd vss vdd vdd sky130_fd_pr__pfet_01v8_hvt ad=0p pd=0u as=0p ps=0u w=870000u l=2.89e+06u
X189 vss dvdd vss vss sky130_fd_pr__nfet_01v8 ad=0p pd=0u as=0p ps=0u w=550000u l=1.05e+06u
X190 a_10506_15694# a_8302_16888# vss vss sky130_fd_pr__nfet_01v8_lvt ad=5.8e+11p pd=5.16e+06u as=0p ps=0u w=1e+06u l=500000u
X191 vss vdd vss vss sky130_fd_pr__nfet_01v8 ad=0p pd=0u as=0p ps=0u w=550000u l=1.05e+06u
X192 vdd vss vdd vdd sky130_fd_pr__pfet_01v8_hvt ad=0p pd=0u as=0p ps=0u w=870000u l=590000u
X193 a_10383_52897# a_9697_51123# vdd vdd sky130_fd_pr__pfet_01v8_hvt ad=1.092e+11p pd=1.36e+06u as=0p ps=0u w=420000u l=150000u
X194 a_14147_17413# a_14605_15614# sky130_fd_pr__cap_mim_m3_1 l=5e+06u w=5e+06u
X195 a_10018_50965# a_9831_50605# a_9931_50721# vss sky130_fd_pr__nfet_01v8 ad=8.82e+10p pd=1.26e+06u as=1.07825e+11p ps=1.36e+06u w=420000u l=150000u
X196 a_9785_4482# a_12242_4494# a_11926_4549# vss sky130_fd_pr__nfet_01v8_lvt ad=0p pd=0u as=0p ps=0u w=1e+06u l=1e+06u
X197 a_15161_31718# a_10506_15694# a_16019_27456# vdd sky130_fd_pr__pfet_01v8_lvt ad=0p pd=0u as=0p ps=0u w=2e+06u l=4e+06u
X198 vss a_10117_54413# a_10283_54413# vss sky130_fd_pr__nfet_01v8 ad=0p pd=0u as=0p ps=0u w=650000u l=150000u
X199 vdd a_40013_15426# dvdd vdd sky130_fd_pr__pfet_01v8_lvt ad=0p pd=0u as=0p ps=0u w=8e+06u l=500000u
X200 vss vss vss vss sky130_fd_pr__nfet_01v8_lvt ad=0p pd=0u as=0p ps=0u w=1e+06u l=1e+06u
X201 vss a_47292_5580# a_47856_5606# vss sky130_fd_pr__nfet_01v8 ad=0p pd=0u as=1.092e+11p ps=1.36e+06u w=420000u l=150000u
X202 vss vdd vss vss sky130_fd_pr__nfet_01v8 ad=0p pd=0u as=0p ps=0u w=550000u l=590000u
X203 a_10073_52389# a_10346_52217# a_10304_52243# vss sky130_fd_pr__nfet_01v8 ad=1.07825e+11p pd=1.36e+06u as=8.82e+10p ps=1.26e+06u w=420000u l=150000u
X204 vss a_22146_16137# vss vss sky130_fd_pr__nfet_01v8_lvt ad=0p pd=0u as=0p ps=0u w=1e+06u l=2e+06u
X205 a_28184_48339# a_28184_49195# a_21533_59718# vdd sky130_fd_pr__pfet_01v8_lvt ad=0p pd=0u as=0p ps=0u w=1e+06u l=4e+06u
X206 avdd ibn_0_ a_27033_7238# avdd sky130_fd_pr__pfet_01v8 ad=0p pd=0u as=0p ps=0u w=1e+06u l=1e+06u
X207 vss a_21230_16137# vss vss sky130_fd_pr__nfet_01v8_lvt ad=0p pd=0u as=0p ps=0u w=1e+06u l=2e+06u
X208 vdd vdd vdd vdd sky130_fd_pr__pfet_01v8_lvt ad=0p pd=0u as=0p ps=0u w=1e+06u l=1e+06u
X209 a_8735_54512# a_10803_51693# vdd vdd sky130_fd_pr__pfet_01v8_hvt ad=0p pd=0u as=0p ps=0u w=1e+06u l=150000u
X210 a_21531_51763# ibp_0_ a_28184_49195# vss sky130_fd_pr__nfet_01v8_lvt ad=0p pd=0u as=0p ps=0u w=2e+06u l=4e+06u
X211 a_47117_4518# a_46036_4518# a_46770_4760# dvdd sky130_fd_pr__pfet_01v8_hvt ad=1.176e+11p pd=1.4e+06u as=2.583e+11p ps=2.37e+06u w=420000u l=150000u
X212 vdd vdd vdd vdd sky130_fd_pr__pfet_01v8_lvt ad=0p pd=0u as=0p ps=0u w=1e+06u l=4e+06u
X213 a_10533_56019# a_9697_51123# a_10593_53869# vdd sky130_fd_pr__pfet_01v8_hvt ad=2.7e+11p pd=2.54e+06u as=7.9e+11p ps=7.58e+06u w=1e+06u l=150000u
X214 vss vss vss vss sky130_fd_pr__nfet_01v8_lvt ad=0p pd=0u as=0p ps=0u w=1e+06u l=1e+06u
X215 a_9785_4482# a_12242_4494# a_11926_4549# vss sky130_fd_pr__nfet_01v8_lvt ad=0p pd=0u as=0p ps=0u w=1e+06u l=1e+06u
X216 vss a_6880_26619# a_7080_26645# vss sky130_fd_pr__nfet_01v8_lvt ad=0p pd=0u as=0p ps=0u w=1e+06u l=1e+06u
X217 a_21531_51763# a_21272_47107# vss vss sky130_fd_pr__nfet_01v8_lvt ad=0p pd=0u as=0p ps=0u w=1e+06u l=1e+06u
X218 vss a_10143_50061# a_17233_48421# vss sky130_fd_pr__nfet_01v8_lvt ad=0p pd=0u as=2.9e+11p ps=2.58e+06u w=1e+06u l=400000u
X219 avdd a_9033_7909# vdd vdd sky130_fd_pr__pfet_01v8_lvt ad=0p pd=0u as=0p ps=0u w=8e+06u l=500000u
X220 vdd a_40013_15426# dvdd vdd sky130_fd_pr__pfet_01v8_lvt ad=0p pd=0u as=0p ps=0u w=8e+06u l=500000u
X221 vss vss vss vss sky130_fd_pr__nfet_01v8_lvt ad=0p pd=0u as=0p ps=0u w=1e+06u l=4e+06u
X222 a_46552_5440# a_46202_5068# a_46457_5428# dvdd sky130_fd_pr__pfet_01v8_hvt ad=1.449e+11p pd=1.53e+06u as=1.302e+11p ps=1.46e+06u w=420000u l=150000u
X223 vss a_47292_4278# a_47226_4352# vss sky130_fd_pr__nfet_01v8 ad=0p pd=0u as=1.338e+11p ps=1.5e+06u w=420000u l=150000u
X224 vss vss vss vss sky130_fd_pr__nfet_01v8_lvt ad=0p pd=0u as=0p ps=0u w=2e+06u l=4e+06u
X225 a_21531_53226# ibp_0_ a_28184_48339# vss sky130_fd_pr__nfet_01v8_lvt ad=0p pd=0u as=0p ps=0u w=2e+06u l=4e+06u
X226 a_11398_50061# a_11221_50061# vdd vdd sky130_fd_pr__pfet_01v8_hvt ad=0p pd=0u as=0p ps=0u w=1e+06u l=150000u
X227 a_21333_59018# a_21333_59018# vdd vdd sky130_fd_pr__pfet_01v8_lvt ad=0p pd=0u as=0p ps=0u w=1e+06u l=1e+06u
X228 vdd vdd vdd vdd sky130_fd_pr__pfet_01v8_lvt ad=0p pd=0u as=0p ps=0u w=2e+06u l=4e+06u
X229 a_27549_7238# a_27549_7238# vss vss sky130_fd_pr__nfet_01v8 ad=0p pd=0u as=0p ps=0u w=1e+06u l=1e+06u
X230 vdd vdd vdd vdd sky130_fd_pr__pfet_01v8_lvt ad=0p pd=0u as=0p ps=0u w=1e+06u l=1e+06u
X231 vdd a_7057_34366# a_6633_29468# vdd sky130_fd_pr__pfet_01v8_lvt ad=0p pd=0u as=0p ps=0u w=1e+06u l=1e+06u
X232 vss vss vss vss sky130_fd_pr__nfet_01v8_lvt ad=0p pd=0u as=0p ps=0u w=1e+06u l=1e+06u
X233 vss vdd vss vss sky130_fd_pr__nfet_01v8 ad=0p pd=0u as=0p ps=0u w=550000u l=2.89e+06u
X234 a_37846_16790# a_37846_18922# vss sky130_fd_pr__res_xhigh_po w=350000u l=8.5e+06u
X235 a_39548_5164# a_39504_5406# a_39382_5164# vss sky130_fd_pr__nfet_01v8 ad=8.82e+10p pd=1.26e+06u as=2.802e+11p ps=2.2e+06u w=420000u l=150000u
X236 vdd a_14147_17413# vdd vdd sky130_fd_pr__pfet_01v8_lvt ad=0p pd=0u as=0p ps=0u w=500000u l=2e+06u
X237 vss vss vss vss sky130_fd_pr__nfet_01v8_lvt ad=0p pd=0u as=0p ps=0u w=1e+06u l=4e+06u
X238 a_21531_51763# a_21272_47107# vss vss sky130_fd_pr__nfet_01v8_lvt ad=0p pd=0u as=0p ps=0u w=1e+06u l=1e+06u
X239 a_21533_59718# a_16534_48421# a_21257_48618# vss sky130_fd_pr__nfet_01v8_lvt ad=0p pd=0u as=0p ps=0u w=2e+06u l=1e+06u
X240 a_16019_26544# a_7257_35054# a_7080_26645# vss sky130_fd_pr__nfet_01v8_lvt ad=0p pd=0u as=0p ps=0u w=1e+06u l=4e+06u
X241 a_27549_7238# ibn_0_ avdd avdd sky130_fd_pr__pfet_01v8 ad=0p pd=0u as=0p ps=0u w=1e+06u l=1e+06u
X242 vdd a_9033_7909# avdd vdd sky130_fd_pr__pfet_01v8_lvt ad=0p pd=0u as=0p ps=0u w=8e+06u l=500000u
X243 a_34723_6373# a_34367_6373# a_27033_7238# avdd sky130_fd_pr__pfet_01v8_lvt ad=2.9e+11p pd=2.58e+06u as=0p ps=0u w=1e+06u l=400000u
X244 vdd a_7057_34366# a_6633_29468# vdd sky130_fd_pr__pfet_01v8_lvt ad=0p pd=0u as=0p ps=0u w=1e+06u l=1e+06u
X245 vss vdd vss vss sky130_fd_pr__nfet_01v8 ad=0p pd=0u as=0p ps=0u w=550000u l=590000u
X246 a_21015_51763# a_21030_55081# vdd vdd sky130_fd_pr__pfet_01v8_lvt ad=0p pd=0u as=0p ps=0u w=1e+06u l=1e+06u
X247 a_8302_16888# a_8302_16888# vss vss sky130_fd_pr__nfet_01v8_lvt ad=0p pd=0u as=0p ps=0u w=1e+06u l=500000u
X248 avdd ibn_0_ a_27549_7238# avdd sky130_fd_pr__pfet_01v8 ad=0p pd=0u as=0p ps=0u w=1e+06u l=1e+06u
X249 vdd a_9506_17973# a_8302_16888# vdd sky130_fd_pr__pfet_01v8_lvt ad=0p pd=0u as=0p ps=0u w=1e+06u l=1e+06u
X250 vdd vdd vdd vdd sky130_fd_pr__pfet_01v8_lvt ad=0p pd=0u as=0p ps=0u w=1e+06u l=1e+06u
X251 vss vss vss vss sky130_fd_pr__nfet_01v8_lvt ad=0p pd=0u as=0p ps=0u w=1e+06u l=1e+06u
X252 a_40013_15754# a_40013_15754# a_40013_15754# vss sky130_fd_pr__nfet_01v8_lvt ad=0p pd=0u as=0p ps=0u w=1e+06u l=1e+06u
X253 vss vss vss vss sky130_fd_pr__nfet_01v8_lvt ad=0p pd=0u as=0p ps=0u w=1e+06u l=1e+06u
X254 a_28184_48339# ibp_0_ a_21531_53226# vss sky130_fd_pr__nfet_01v8_lvt ad=0p pd=0u as=0p ps=0u w=2e+06u l=4e+06u
X255 a_10287_50605# a_9931_50721# vss vss sky130_fd_pr__nfet_01v8 ad=1.69e+11p pd=1.82e+06u as=0p ps=0u w=650000u l=150000u