* NGSPICE file created from TOP.ext - technology: sky130A


* Top level circuit TOP

.subckt DAC out sample vdd vss vin ctl7 ctl6 ctl5 ctl4 ctl3 ctl2 ctl1 ctl0 dum
X0 out nctl7 sky130_fd_pr__cap_mim_m3_1 l=2e+06u w=2e+06u
X1 out nctl7 sky130_fd_pr__cap_mim_m3_1 l=2e+06u w=2e+06u
X2 out nctl6 sky130_fd_pr__cap_mim_m3_1 l=2e+06u w=2e+06u
X3 out dummy_bot sky130_fd_pr__cap_mim_m3_1 l=2e+06u w=2e+06u
X4 out nctl5 sky130_fd_pr__cap_mim_m3_1 l=2e+06u w=2e+06u
X5 out dummy_bot sky130_fd_pr__cap_mim_m3_1 l=2e+06u w=2e+06u
X6 out a_45464_4239 vin vss sky130_fd_pr__nfet_01v8 ad=5.8e+12p pd=5.16e+07u as=6.96e+12p ps=6.192e+07u w=1e+06u l=300000u
X7 out nctl7 sky130_fd_pr__cap_mim_m3_1 l=2e+06u w=2e+06u
X8 out a_44621_2120 vin vdd sky130_fd_pr__pfet_01v8 ad=5.8e+12p pd=5.16e+07u as=6.96e+12p ps=6.192e+07u w=1e+06u l=300000u
X9 a_45464_6355 a_44621_6352 vss vss sky130_fd_pr__nfet_01v8 ad=3.51e+11p pd=3.68e+06u as=9.438e+12p ps=1.0252e+08u w=650000u l=150000u
X10 vin a_45464_6355 out vss sky130_fd_pr__nfet_01v8 ad=0p pd=0u as=0p ps=0u w=1e+06u l=300000u
X11 out nctl7 sky130_fd_pr__cap_mim_m3_1 l=2e+06u w=2e+06u
X12 out nctl7 sky130_fd_pr__cap_mim_m3_1 l=2e+06u w=2e+06u
X13 out dummy_bot sky130_fd_pr__cap_mim_m3_1 l=2e+06u w=2e+06u
X14 out nctl7 sky130_fd_pr__cap_mim_m3_1 l=2e+06u w=2e+06u
X15 out nctl7 sky130_fd_pr__cap_mim_m3_1 l=2e+06u w=2e+06u
X16 out nctl5 sky130_fd_pr__cap_mim_m3_1 l=2e+06u w=2e+06u
X17 vss vdd vss vss sky130_fd_pr__nfet_01v8 ad=0p pd=0u as=0p ps=0u w=550000u l=590000u
X18 vdd sample a_44621_6352 w_45973_1664 sky130_fd_pr__pfet_01v8_hvt ad=1.46192e+13p pd=1.4216e+08u as=5.4e+11p ps=5.08e+06u w=1e+06u l=150000u
X19 out nctl7 sky130_fd_pr__cap_mim_m3_1 l=2e+06u w=2e+06u
X20 out dummy_bot sky130_fd_pr__cap_mim_m3_1 l=2e+06u w=2e+06u
X21 out nctl6 sky130_fd_pr__cap_mim_m3_1 l=2e+06u w=2e+06u
X22 out nctl5 sky130_fd_pr__cap_mim_m3_1 l=2e+06u w=2e+06u
X23 dum dum vss vss sky130_fd_pr__nfet_01v8 ad=1.755e+11p pd=1.84e+06u as=0p ps=0u w=650000u l=150000u
X24 out nctl1 sky130_fd_pr__cap_mim_m3_1 l=2e+06u w=2e+06u
X25 out dummy_bot sky130_fd_pr__cap_mim_m3_1 l=2e+06u w=2e+06u
X26 out nctl4 sky130_fd_pr__cap_mim_m3_1 l=2e+06u w=2e+06u
X27 vin a_45464_2123 out vss sky130_fd_pr__nfet_01v8 ad=0p pd=0u as=0p ps=0u w=1e+06u l=300000u
X28 out nctl5 sky130_fd_pr__cap_mim_m3_1 l=2e+06u w=2e+06u
X29 nctl1 ctl1 vdd w_n2041_379 sky130_fd_pr__pfet_01v8_hvt ad=2.7e+11p pd=2.54e+06u as=0p ps=0u w=1e+06u l=150000u
X30 vin a_45464_8471 out vss sky130_fd_pr__nfet_01v8 ad=0p pd=0u as=0p ps=0u w=1e+06u l=300000u
X31 out dummy_bot sky130_fd_pr__cap_mim_m3_1 l=2e+06u w=2e+06u
X32 out nctl6 sky130_fd_pr__cap_mim_m3_1 l=2e+06u w=2e+06u
X33 out nctl7 sky130_fd_pr__cap_mim_m3_1 l=2e+06u w=2e+06u
X34 out nctl7 sky130_fd_pr__cap_mim_m3_1 l=2e+06u w=2e+06u
X35 out nctl5 sky130_fd_pr__cap_mim_m3_1 l=2e+06u w=2e+06u
X36 vin a_44621_2120 out vdd sky130_fd_pr__pfet_01v8 ad=0p pd=0u as=0p ps=0u w=1e+06u l=300000u
X37 out nctl7 sky130_fd_pr__cap_mim_m3_1 l=2e+06u w=2e+06u
X38 out dummy_bot sky130_fd_pr__cap_mim_m3_1 l=2e+06u w=2e+06u
X39 out nctl1 sky130_fd_pr__cap_mim_m3_1 l=2e+06u w=2e+06u
X40 out a_44621_4236 vin vdd sky130_fd_pr__pfet_01v8 ad=0p pd=0u as=0p ps=0u w=1e+06u l=300000u
X41 out nctl3 sky130_fd_pr__cap_mim_m3_1 l=2e+06u w=2e+06u
X42 vin a_44621_8468 out vdd sky130_fd_pr__pfet_01v8 ad=0p pd=0u as=0p ps=0u w=1e+06u l=300000u
X43 vdd ctl2 nctl2 w_n2041_379 sky130_fd_pr__pfet_01v8_hvt ad=0p pd=0u as=2.7e+11p ps=2.54e+06u w=1e+06u l=150000u
X44 out nctl6 sky130_fd_pr__cap_mim_m3_1 l=2e+06u w=2e+06u
X45 out dummy_bot sky130_fd_pr__cap_mim_m3_1 l=2e+06u w=2e+06u
X46 out dummy_bot sky130_fd_pr__cap_mim_m3_1 l=2e+06u w=2e+06u
X47 vss a_44621_6352 a_45464_6355 vss sky130_fd_pr__nfet_01v8 ad=0p pd=0u as=0p ps=0u w=650000u l=150000u
X48 a_44621_6352 sample vss vss sky130_fd_pr__nfet_01v8 ad=3.51e+11p pd=3.68e+06u as=0p ps=0u w=650000u l=150000u
X49 vdd a_44621_4236 a_45464_4239 w_45973_1664 sky130_fd_pr__pfet_01v8_hvt ad=0p pd=0u as=5.4e+11p ps=5.08e+06u w=1e+06u l=150000u
X50 vss ctl2 nctl2 vss sky130_fd_pr__nfet_01v8 ad=0p pd=0u as=1.755e+11p ps=1.84e+06u w=650000u l=150000u
X51 out nctl7 sky130_fd_pr__cap_mim_m3_1 l=2e+06u w=2e+06u
X52 a_45464_6355 a_44621_6352 vss vss sky130_fd_pr__nfet_01v8 ad=0p pd=0u as=0p ps=0u w=650000u l=150000u
X53 out nctl7 sky130_fd_pr__cap_mim_m3_1 l=2e+06u w=2e+06u
X54 out a_45464_2123 vin vss sky130_fd_pr__nfet_01v8 ad=0p pd=0u as=0p ps=0u w=1e+06u l=300000u
X55 a_44621_4236 sample vdd w_45973_1664 sky130_fd_pr__pfet_01v8_hvt ad=5.4e+11p pd=5.08e+06u as=0p ps=0u w=1e+06u l=150000u
X56 out nctl5 sky130_fd_pr__cap_mim_m3_1 l=2e+06u w=2e+06u
X57 vss dum dum vss sky130_fd_pr__nfet_01v8 ad=0p pd=0u as=0p ps=0u w=650000u l=150000u
X58 out a_45464_8471 vin vss sky130_fd_pr__nfet_01v8 ad=0p pd=0u as=0p ps=0u w=1e+06u l=300000u
X59 vdd a_44621_8468 a_45464_8471 w_45973_1664 sky130_fd_pr__pfet_01v8_hvt ad=0p pd=0u as=5.4e+11p ps=5.08e+06u w=1e+06u l=150000u
X60 out a_44621_6352 vin vdd sky130_fd_pr__pfet_01v8 ad=0p pd=0u as=0p ps=0u w=1e+06u l=300000u
X61 out nctl6 sky130_fd_pr__cap_mim_m3_1 l=2e+06u w=2e+06u
X62 out dummy_bot sky130_fd_pr__cap_mim_m3_1 l=2e+06u w=2e+06u
X63 out nctl5 sky130_fd_pr__cap_mim_m3_1 l=2e+06u w=2e+06u
X64 out nctl7 sky130_fd_pr__cap_mim_m3_1 l=2e+06u w=2e+06u
X65 a_44621_4236 sample vss vss sky130_fd_pr__nfet_01v8 ad=3.51e+11p pd=3.68e+06u as=0p ps=0u w=650000u l=150000u
X66 out nctl6 sky130_fd_pr__cap_mim_m3_1 l=2e+06u w=2e+06u
X67 out nctl5 sky130_fd_pr__cap_mim_m3_1 l=2e+06u w=2e+06u
X68 out nctl6 sky130_fd_pr__cap_mim_m3_1 l=2e+06u w=2e+06u
X69 out dummy_bot sky130_fd_pr__cap_mim_m3_1 l=2e+06u w=2e+06u
X70 vss vdd vss vss sky130_fd_pr__nfet_01v8 ad=0p pd=0u as=0p ps=0u w=550000u l=2.89e+06u
X71 out nctl7 sky130_fd_pr__cap_mim_m3_1 l=2e+06u w=2e+06u
X72 out a_45464_4239 vin vss sky130_fd_pr__nfet_01v8 ad=0p pd=0u as=0p ps=0u w=1e+06u l=300000u
X73 out nctl6 sky130_fd_pr__cap_mim_m3_1 l=2e+06u w=2e+06u
X74 out nctl7 sky130_fd_pr__cap_mim_m3_1 l=2e+06u w=2e+06u
X75 out nctl7 sky130_fd_pr__cap_mim_m3_1 l=2e+06u w=2e+06u
X76 out dummy_bot sky130_fd_pr__cap_mim_m3_1 l=2e+06u w=2e+06u
X77 out nctl7 sky130_fd_pr__cap_mim_m3_1 l=2e+06u w=2e+06u
X78 out nctl7 sky130_fd_pr__cap_mim_m3_1 l=2e+06u w=2e+06u
X79 out nctl5 sky130_fd_pr__cap_mim_m3_1 l=2e+06u w=2e+06u
X80 out nctl6 sky130_fd_pr__cap_mim_m3_1 l=2e+06u w=2e+06u
X81 vin a_44621_6352 out vdd sky130_fd_pr__pfet_01v8 ad=0p pd=0u as=0p ps=0u w=1e+06u l=300000u
X82 out nctl3 sky130_fd_pr__cap_mim_m3_1 l=2e+06u w=2e+06u
X83 out nctl2 sky130_fd_pr__cap_mim_m3_1 l=2e+06u w=2e+06u
X84 vdd vss vdd w_45973_1664 sky130_fd_pr__pfet_01v8_hvt ad=0p pd=0u as=0p ps=0u w=870000u l=590000u
X85 a_45464_2123 a_44621_2120 vdd w_45973_1664 sky130_fd_pr__pfet_01v8_hvt ad=5.4e+11p pd=5.08e+06u as=0p ps=0u w=1e+06u l=150000u
X86 vss a_44621_6352 a_45464_6355 vss sky130_fd_pr__nfet_01v8 ad=0p pd=0u as=0p ps=0u w=650000u l=150000u
X87 out nctl5 sky130_fd_pr__cap_mim_m3_1 l=2e+06u w=2e+06u
X88 vdd ctl1 nctl1 w_n2041_379 sky130_fd_pr__pfet_01v8_hvt ad=0p pd=0u as=0p ps=0u w=1e+06u l=150000u
X89 out nctl6 sky130_fd_pr__cap_mim_m3_1 l=2e+06u w=2e+06u
X90 out nctl7 sky130_fd_pr__cap_mim_m3_1 l=2e+06u w=2e+06u
X91 out a_44621_6352 vin vdd sky130_fd_pr__pfet_01v8 ad=0p pd=0u as=0p ps=0u w=1e+06u l=300000u
X92 out nctl5 sky130_fd_pr__cap_mim_m3_1 l=2e+06u w=2e+06u
X93 out dummy_bot sky130_fd_pr__cap_mim_m3_1 l=2e+06u w=2e+06u
X94 out nctl4 sky130_fd_pr__cap_mim_m3_1 l=2e+06u w=2e+06u
X95 out dummy_bot sky130_fd_pr__cap_mim_m3_1 l=2e+06u w=2e+06u
X96 out nctl7 sky130_fd_pr__cap_mim_m3_1 l=2e+06u w=2e+06u
X97 out nctl7 sky130_fd_pr__cap_mim_m3_1 l=2e+06u w=2e+06u
X98 out nctl3 sky130_fd_pr__cap_mim_m3_1 l=2e+06u w=2e+06u
X99 out nctl7 sky130_fd_pr__cap_mim_m3_1 l=2e+06u w=2e+06u
X100 out nctl6 sky130_fd_pr__cap_mim_m3_1 l=2e+06u w=2e+06u
X101 out dummy_bot sky130_fd_pr__cap_mim_m3_1 l=2e+06u w=2e+06u
X102 vss sample a_44621_4236 vss sky130_fd_pr__nfet_01v8 ad=0p pd=0u as=0p ps=0u w=650000u l=150000u
X103 dum dum vdd w_n2041_379 sky130_fd_pr__pfet_01v8_hvt ad=2.7e+11p pd=2.54e+06u as=0p ps=0u w=1e+06u l=150000u
X104 vdd ctl7 nctl7 w_n2041_379 sky130_fd_pr__pfet_01v8_hvt ad=0p pd=0u as=2.7e+11p ps=2.54e+06u w=1e+06u l=150000u
X105 vdd ctl6 nctl6 w_n2041_379 sky130_fd_pr__pfet_01v8_hvt ad=0p pd=0u as=2.7e+11p ps=2.54e+06u w=1e+06u l=150000u
X106 out nctl7 sky130_fd_pr__cap_mim_m3_1 l=2e+06u w=2e+06u
X107 vdd vss vdd w_45973_1664 sky130_fd_pr__pfet_01v8_hvt ad=0p pd=0u as=0p ps=0u w=870000u l=590000u
X108 vin a_45464_6355 out vss sky130_fd_pr__nfet_01v8 ad=0p pd=0u as=0p ps=0u w=1e+06u l=300000u
X109 vss a_44621_4236 a_45464_4239 vss sky130_fd_pr__nfet_01v8 ad=0p pd=0u as=3.51e+11p ps=3.68e+06u w=650000u l=150000u
X110 out dummy_bot sky130_fd_pr__cap_mim_m3_1 l=2e+06u w=2e+06u
X111 out nctl7 sky130_fd_pr__cap_mim_m3_1 l=2e+06u w=2e+06u
X112 vin a_44621_6352 out vdd sky130_fd_pr__pfet_01v8 ad=0p pd=0u as=0p ps=0u w=1e+06u l=300000u
X113 out nctl5 sky130_fd_pr__cap_mim_m3_1 l=2e+06u w=2e+06u
X114 out a_44621_8468 vin vdd sky130_fd_pr__pfet_01v8 ad=0p pd=0u as=0p ps=0u w=1e+06u l=300000u
X115 out a_44621_2120 vin vdd sky130_fd_pr__pfet_01v8 ad=0p pd=0u as=0p ps=0u w=1e+06u l=300000u
X116 out nctl7 sky130_fd_pr__cap_mim_m3_1 l=2e+06u w=2e+06u
X117 out nctl6 sky130_fd_pr__cap_mim_m3_1 l=2e+06u w=2e+06u
X118 out dummy_bot sky130_fd_pr__cap_mim_m3_1 l=2e+06u w=2e+06u
X119 out nctl6 sky130_fd_pr__cap_mim_m3_1 l=2e+06u w=2e+06u
X120 out nctl5 sky130_fd_pr__cap_mim_m3_1 l=2e+06u w=2e+06u
X121 out nctl7 sky130_fd_pr__cap_mim_m3_1 l=2e+06u w=2e+06u
X122 out dummy_bot sky130_fd_pr__cap_mim_m3_1 l=2e+06u w=2e+06u
X123 nctl0 ctl0 vdd w_n2041_379 sky130_fd_pr__pfet_01v8_hvt ad=2.7e+11p pd=2.54e+06u as=0p ps=0u w=1e+06u l=150000u
X124 out nctl6 sky130_fd_pr__cap_mim_m3_1 l=2e+06u w=2e+06u
X125 out nctl5 sky130_fd_pr__cap_mim_m3_1 l=2e+06u w=2e+06u
X126 vdd ctl5 nctl5 w_n2041_379 sky130_fd_pr__pfet_01v8_hvt ad=0p pd=0u as=2.7e+11p ps=2.54e+06u w=1e+06u l=150000u
X127 out nctl7 sky130_fd_pr__cap_mim_m3_1 l=2e+06u w=2e+06u
X128 out a_45464_6355 vin vss sky130_fd_pr__nfet_01v8 ad=0p pd=0u as=0p ps=0u w=1e+06u l=300000u
X129 out nctl6 sky130_fd_pr__cap_mim_m3_1 l=2e+06u w=2e+06u
X130 out a_44621_4236 vin vdd sky130_fd_pr__pfet_01v8 ad=0p pd=0u as=0p ps=0u w=1e+06u l=300000u
X131 out dummy_bot sky130_fd_pr__cap_mim_m3_1 l=2e+06u w=2e+06u
X132 a_45464_6355 a_44621_6352 vdd w_45973_1664 sky130_fd_pr__pfet_01v8_hvt ad=5.4e+11p pd=5.08e+06u as=0p ps=0u w=1e+06u l=150000u
X133 out nctl7 sky130_fd_pr__cap_mim_m3_1 l=2e+06u w=2e+06u
X134 out nctl7 sky130_fd_pr__cap_mim_m3_1 l=2e+06u w=2e+06u
X135 out dummy_bot sky130_fd_pr__cap_mim_m3_1 l=2e+06u w=2e+06u
X136 out nctl7 sky130_fd_pr__cap_mim_m3_1 l=2e+06u w=2e+06u
X137 out nctl6 sky130_fd_pr__cap_mim_m3_1 l=2e+06u w=2e+06u
X138 vss vdd vss vss sky130_fd_pr__nfet_01v8 ad=0p pd=0u as=0p ps=0u w=550000u l=2.89e+06u
X139 out nctl0 sky130_fd_pr__cap_mim_m3_1 l=2e+06u w=2e+06u
X140 out dummy_bot sky130_fd_pr__cap_mim_m3_1 l=2e+06u w=2e+06u
X141 out nctl6 sky130_fd_pr__cap_mim_m3_1 l=2e+06u w=2e+06u
X142 out nctl3 sky130_fd_pr__cap_mim_m3_1 l=2e+06u w=2e+06u
X143 out a_45464_2123 vin vss sky130_fd_pr__nfet_01v8 ad=0p pd=0u as=0p ps=0u w=1e+06u l=300000u
X144 a_45464_4239 a_44621_4236 vss vss sky130_fd_pr__nfet_01v8 ad=0p pd=0u as=0p ps=0u w=650000u l=150000u
X145 vss sample a_44621_4236 vss sky130_fd_pr__nfet_01v8 ad=0p pd=0u as=0p ps=0u w=650000u l=150000u
X146 a_44621_2120 sample vdd w_45973_1664 sky130_fd_pr__pfet_01v8_hvt ad=5.4e+11p pd=5.08e+06u as=0p ps=0u w=1e+06u l=150000u
X147 out nctl6 sky130_fd_pr__cap_mim_m3_1 l=2e+06u w=2e+06u
X148 nctl7 ctl7 vss vss sky130_fd_pr__nfet_01v8 ad=1.755e+11p pd=1.84e+06u as=0p ps=0u w=650000u l=150000u
X149 vdd vss vdd w_45973_1664 sky130_fd_pr__pfet_01v8_hvt ad=0p pd=0u as=0p ps=0u w=870000u l=2.89e+06u
X150 vss vdd vss vss sky130_fd_pr__nfet_01v8 ad=0p pd=0u as=0p ps=0u w=550000u l=590000u
X151 out a_44621_2120 vin vdd sky130_fd_pr__pfet_01v8 ad=0p pd=0u as=0p ps=0u w=1e+06u l=300000u
X152 out nctl5 sky130_fd_pr__cap_mim_m3_1 l=2e+06u w=2e+06u
X153 out dummy_bot sky130_fd_pr__cap_mim_m3_1 l=2e+06u w=2e+06u
X154 out dummy_bot sky130_fd_pr__cap_mim_m3_1 l=2e+06u w=2e+06u
X155 out nctl4 sky130_fd_pr__cap_mim_m3_1 l=2e+06u w=2e+06u
X156 vin a_44621_4236 out vdd sky130_fd_pr__pfet_01v8 ad=0p pd=0u as=0p ps=0u w=1e+06u l=300000u
X157 out dummy_bot sky130_fd_pr__cap_mim_m3_1 l=2e+06u w=2e+06u
X158 out dummy_bot sky130_fd_pr__cap_mim_m3_1 l=2e+06u w=2e+06u
X159 out nctl3 sky130_fd_pr__cap_mim_m3_1 l=2e+06u w=2e+06u
X160 out nctl7 sky130_fd_pr__cap_mim_m3_1 l=2e+06u w=2e+06u
X161 out nctl7 sky130_fd_pr__cap_mim_m3_1 l=2e+06u w=2e+06u
X162 out dummy_bot sky130_fd_pr__cap_mim_m3_1 l=2e+06u w=2e+06u
X163 out nctl6 sky130_fd_pr__cap_mim_m3_1 l=2e+06u w=2e+06u
X164 out nctl6 sky130_fd_pr__cap_mim_m3_1 l=2e+06u w=2e+06u
X165 nctl2 ctl2 vss vss sky130_fd_pr__nfet_01v8 ad=0p pd=0u as=0p ps=0u w=650000u l=150000u
X166 out nctl7 sky130_fd_pr__cap_mim_m3_1 l=2e+06u w=2e+06u
X167 vin a_45464_2123 out vss sky130_fd_pr__nfet_01v8 ad=0p pd=0u as=0p ps=0u w=1e+06u l=300000u
X168 out a_45464_4239 vin vss sky130_fd_pr__nfet_01v8 ad=0p pd=0u as=0p ps=0u w=1e+06u l=300000u
X169 out nctl7 sky130_fd_pr__cap_mim_m3_1 l=2e+06u w=2e+06u
X170 out a_44621_2120 vin vdd sky130_fd_pr__pfet_01v8 ad=0p pd=0u as=0p ps=0u w=1e+06u l=300000u
X171 vin a_45464_8471 out vss sky130_fd_pr__nfet_01v8 ad=0p pd=0u as=0p ps=0u w=1e+06u l=300000u
X172 a_44621_4236 sample vdd w_45973_1664 sky130_fd_pr__pfet_01v8_hvt ad=0p pd=0u as=0p ps=0u w=1e+06u l=150000u
X173 vin a_44621_2120 out vdd sky130_fd_pr__pfet_01v8 ad=0p pd=0u as=0p ps=0u w=1e+06u l=300000u
X174 out nctl7 sky130_fd_pr__cap_mim_m3_1 l=2e+06u w=2e+06u
X175 vin a_44621_6352 out vdd sky130_fd_pr__pfet_01v8 ad=0p pd=0u as=0p ps=0u w=1e+06u l=300000u
X176 out nctl7 sky130_fd_pr__cap_mim_m3_1 l=2e+06u w=2e+06u
X177 out dummy_bot sky130_fd_pr__cap_mim_m3_1 l=2e+06u w=2e+06u
X178 out nctl6 sky130_fd_pr__cap_mim_m3_1 l=2e+06u w=2e+06u
X179 a_44621_4236 sample vss vss sky130_fd_pr__nfet_01v8 ad=0p pd=0u as=0p ps=0u w=650000u l=150000u
X180 out dummy_bot sky130_fd_pr__cap_mim_m3_1 l=2e+06u w=2e+06u
X181 out nctl7 sky130_fd_pr__cap_mim_m3_1 l=2e+06u w=2e+06u
X182 out nctl6 sky130_fd_pr__cap_mim_m3_1 l=2e+06u w=2e+06u
X183 out nctl7 sky130_fd_pr__cap_mim_m3_1 l=2e+06u w=2e+06u
X184 a_45464_4239 a_44621_4236 vss vss sky130_fd_pr__nfet_01v8 ad=0p pd=0u as=0p ps=0u w=650000u l=150000u
X185 vdd ctl0 nctl0 w_n2041_379 sky130_fd_pr__pfet_01v8_hvt ad=0p pd=0u as=0p ps=0u w=1e+06u l=150000u
X186 vss ctl7 nctl7 vss sky130_fd_pr__nfet_01v8 ad=0p pd=0u as=0p ps=0u w=650000u l=150000u
X187 out nctl6 sky130_fd_pr__cap_mim_m3_1 l=2e+06u w=2e+06u
X188 out nctl5 sky130_fd_pr__cap_mim_m3_1 l=2e+06u w=2e+06u
X189 out a_45464_6355 vin vss sky130_fd_pr__nfet_01v8 ad=0p pd=0u as=0p ps=0u w=1e+06u l=300000u
X190 out nctl6 sky130_fd_pr__cap_mim_m3_1 l=2e+06u w=2e+06u
X191 out nctl7 sky130_fd_pr__cap_mim_m3_1 l=2e+06u w=2e+06u
X192 out nctl7 sky130_fd_pr__cap_mim_m3_1 l=2e+06u w=2e+06u
X193 out nctl4 sky130_fd_pr__cap_mim_m3_1 l=2e+06u w=2e+06u
X194 out dummy_bot sky130_fd_pr__cap_mim_m3_1 l=2e+06u w=2e+06u
X195 out nctl7 sky130_fd_pr__cap_mim_m3_1 l=2e+06u w=2e+06u
X196 out nctl2 sky130_fd_pr__cap_mim_m3_1 l=2e+06u w=2e+06u
X197 out dummy_bot sky130_fd_pr__cap_mim_m3_1 l=2e+06u w=2e+06u
X198 nctl4 ctl4 vdd w_n2041_379 sky130_fd_pr__pfet_01v8_hvt ad=2.7e+11p pd=2.54e+06u as=0p ps=0u w=1e+06u l=150000u
X199 out nctl6 sky130_fd_pr__cap_mim_m3_1 l=2e+06u w=2e+06u
X200 a_44621_2120 sample vss vss sky130_fd_pr__nfet_01v8 ad=3.51e+11p pd=3.68e+06u as=0p ps=0u w=650000u l=150000u
X201 vin a_45464_6355 out vss sky130_fd_pr__nfet_01v8 ad=0p pd=0u as=0p ps=0u w=1e+06u l=300000u
X202 vin a_44621_4236 out vdd sky130_fd_pr__pfet_01v8 ad=0p pd=0u as=0p ps=0u w=1e+06u l=300000u
X203 out a_44621_8468 vin vdd sky130_fd_pr__pfet_01v8 ad=0p pd=0u as=0p ps=0u w=1e+06u l=300000u
X204 out nctl7 sky130_fd_pr__cap_mim_m3_1 l=2e+06u w=2e+06u
X205 out nctl6 sky130_fd_pr__cap_mim_m3_1 l=2e+06u w=2e+06u
X206 out nctl5 sky130_fd_pr__cap_mim_m3_1 l=2e+06u w=2e+06u
X207 out nctl4 sky130_fd_pr__cap_mim_m3_1 l=2e+06u w=2e+06u
X208 out nctl7 sky130_fd_pr__cap_mim_m3_1 l=2e+06u w=2e+06u
X209 out dummy_bot sky130_fd_pr__cap_mim_m3_1 l=2e+06u w=2e+06u
X210 vdd a_44621_8468 a_45464_8471 w_45973_1664 sky130_fd_pr__pfet_01v8_hvt ad=0p pd=0u as=0p ps=0u w=1e+06u l=150000u
X211 out nctl7 sky130_fd_pr__cap_mim_m3_1 l=2e+06u w=2e+06u
X212 out nctl6 sky130_fd_pr__cap_mim_m3_1 l=2e+06u w=2e+06u
X213 nctl3 ctl3 vdd w_n2041_379 sky130_fd_pr__pfet_01v8_hvt ad=2.7e+11p pd=2.54e+06u as=0p ps=0u w=1e+06u l=150000u
X214 out nctl7 sky130_fd_pr__cap_mim_m3_1 l=2e+06u w=2e+06u
X215 a_44621_8468 sample vdd w_45973_1664 sky130_fd_pr__pfet_01v8_hvt ad=5.4e+11p pd=5.08e+06u as=0p ps=0u w=1e+06u l=150000u
X216 vss a_44621_4236 a_45464_4239 vss sky130_fd_pr__nfet_01v8 ad=0p pd=0u as=0p ps=0u w=650000u l=150000u
X217 out nctl6 sky130_fd_pr__cap_mim_m3_1 l=2e+06u w=2e+06u
X218 out a_45464_6355 vin vss sky130_fd_pr__nfet_01v8 ad=0p pd=0u as=0p ps=0u w=1e+06u l=300000u
X219 out dummy_bot sky130_fd_pr__cap_mim_m3_1 l=2e+06u w=2e+06u
X220 a_44621_8468 sample vss vss sky130_fd_pr__nfet_01v8 ad=3.51e+11p pd=3.68e+06u as=0p ps=0u w=650000u l=150000u
X221 out nctl7 sky130_fd_pr__cap_mim_m3_1 l=2e+06u w=2e+06u
X222 out dummy_bot sky130_fd_pr__cap_mim_m3_1 l=2e+06u w=2e+06u
X223 out nctl7 sky130_fd_pr__cap_mim_m3_1 l=2e+06u w=2e+06u
X224 vdd sample a_44621_4236 w_45973_1664 sky130_fd_pr__pfet_01v8_hvt ad=0p pd=0u as=0p ps=0u w=1e+06u l=150000u
X225 vin a_44621_8468 out vdd sky130_fd_pr__pfet_01v8 ad=0p pd=0u as=0p ps=0u w=1e+06u l=300000u
X226 out dummy_bot sky130_fd_pr__cap_mim_m3_1 l=2e+06u w=2e+06u
X227 out nctl7 sky130_fd_pr__cap_mim_m3_1 l=2e+06u w=2e+06u
X228 vin a_44621_2120 out vdd sky130_fd_pr__pfet_01v8 ad=0p pd=0u as=0p ps=0u w=1e+06u l=300000u
X229 out nctl6 sky130_fd_pr__cap_mim_m3_1 l=2e+06u w=2e+06u
X230 out nctl7 sky130_fd_pr__cap_mim_m3_1 l=2e+06u w=2e+06u
X231 out dummy_bot sky130_fd_pr__cap_mim_m3_1 l=2e+06u w=2e+06u
X232 out nctl7 sky130_fd_pr__cap_mim_m3_1 l=2e+06u w=2e+06u
X233 out nctl7 sky130_fd_pr__cap_mim_m3_1 l=2e+06u w=2e+06u
X234 out nctl6 sky130_fd_pr__cap_mim_m3_1 l=2e+06u w=2e+06u
X235 out nctl6 sky130_fd_pr__cap_mim_m3_1 l=2e+06u w=2e+06u
X236 out nctl6 sky130_fd_pr__cap_mim_m3_1 l=2e+06u w=2e+06u
X237 a_45464_4239 a_44621_4236 vdd w_45973_1664 sky130_fd_pr__pfet_01v8_hvt ad=0p pd=0u as=0p ps=0u w=1e+06u l=150000u
X238 a_44621_2120 sample vss vss sky130_fd_pr__nfet_01v8 ad=0p pd=0u as=0p ps=0u w=650000u l=150000u
X239 vss a_44621_2120 a_45464_2123 vss sky130_fd_pr__nfet_01v8 ad=0p pd=0u as=3.51e+11p ps=3.68e+06u w=650000u l=150000u
X240 out nctl6 sky130_fd_pr__cap_mim_m3_1 l=2e+06u w=2e+06u
X241 vin a_45464_6355 out vss sky130_fd_pr__nfet_01v8 ad=0p pd=0u as=0p ps=0u w=1e+06u l=300000u
X242 out a_45464_8471 vin vss sky130_fd_pr__nfet_01v8 ad=0p pd=0u as=0p ps=0u w=1e+06u l=300000u
X243 out nctl6 sky130_fd_pr__cap_mim_m3_1 l=2e+06u w=2e+06u
X244 out a_45464_2123 vin vss sky130_fd_pr__nfet_01v8 ad=0p pd=0u as=0p ps=0u w=1e+06u l=300000u
X245 nctl5 ctl5 vss vss sky130_fd_pr__nfet_01v8 ad=1.755e+11p pd=1.84e+06u as=0p ps=0u w=650000u l=150000u
X246 out nctl7 sky130_fd_pr__cap_mim_m3_1 l=2e+06u w=2e+06u
X247 out dummy_bot sky130_fd_pr__cap_mim_m3_1 l=2e+06u w=2e+06u
X248 out nctl4 sky130_fd_pr__cap_mim_m3_1 l=2e+06u w=2e+06u
X249 out dummy_bot sky130_fd_pr__cap_mim_m3_1 l=2e+06u w=2e+06u
X250 out nctl7 sky130_fd_pr__cap_mim_m3_1 l=2e+06u w=2e+06u
X251 out nctl7 sky130_fd_pr__cap_mim_m3_1 l=2e+06u w=2e+06u
X252 out dummy_bot sky130_fd_pr__cap_mim_m3_1 l=2e+06u w=2e+06u
X253 out nctl3 sky130_fd_pr__cap_mim_m3_1 l=2e+06u w=2e+06u
X254 out dummy_bot sky130_fd_pr__cap_mim_m3_1 l=2e+06u w=2e+06u
X255 out nctl6 sky130_fd_pr__cap_mim_m3_1 l=2e+06u w=2e+06u
X256 vdd sample a_44621_6352 w_45973_1664 sky130_fd_pr__pfet_01v8_hvt ad=0p pd=0u as=0p ps=0u w=1e+06u l=150000u
X257 vdd ctl4 nctl4 w_n2041_379 sky130_fd_pr__pfet_01v8_hvt ad=0p pd=0u as=0p ps=0u w=1e+06u l=150000u
X258 out a_45464_4239 vin vss sky130_fd_pr__nfet_01v8 ad=0p pd=0u as=0p ps=0u w=1e+06u l=300000u
X259 vdd vss vdd w_45973_1664 sky130_fd_pr__pfet_01v8_hvt ad=0p pd=0u as=0p ps=0u w=870000u l=2.89e+06u
X260 nctl1 ctl1 vss vss sky130_fd_pr__nfet_01v8 ad=1.755e+11p pd=1.84e+06u as=0p ps=0u w=650000u l=150000u
X261 vss vdd vss vss sky130_fd_pr__nfet_01v8 ad=0p pd=0u as=0p ps=0u w=550000u l=2.89e+06u
X262 out nctl7 sky130_fd_pr__cap_mim_m3_1 l=2e+06u w=2e+06u
X263 out nctl7 sky130_fd_pr__cap_mim_m3_1 l=2e+06u w=2e+06u
X264 out dummy_bot sky130_fd_pr__cap_mim_m3_1 l=2e+06u w=2e+06u
X265 out dummy_bot sky130_fd_pr__cap_mim_m3_1 l=2e+06u w=2e+06u
X266 out nctl7 sky130_fd_pr__cap_mim_m3_1 l=2e+06u w=2e+06u
X267 out a_44621_4236 vin vdd sky130_fd_pr__pfet_01v8 ad=0p pd=0u as=0p ps=0u w=1e+06u l=300000u
X268 out nctl4 sky130_fd_pr__cap_mim_m3_1 l=2e+06u w=2e+06u
X269 out nctl6 sky130_fd_pr__cap_mim_m3_1 l=2e+06u w=2e+06u
X270 out nctl7 sky130_fd_pr__cap_mim_m3_1 l=2e+06u w=2e+06u
X271 out dummy_bot sky130_fd_pr__cap_mim_m3_1 l=2e+06u w=2e+06u
X272 out nctl7 sky130_fd_pr__cap_mim_m3_1 l=2e+06u w=2e+06u
X273 vss sample a_44621_2120 vss sky130_fd_pr__nfet_01v8 ad=0p pd=0u as=0p ps=0u w=650000u l=150000u
X274 out nctl7 sky130_fd_pr__cap_mim_m3_1 l=2e+06u w=2e+06u
X275 out nctl6 sky130_fd_pr__cap_mim_m3_1 l=2e+06u w=2e+06u
X276 out dummy_bot sky130_fd_pr__cap_mim_m3_1 l=2e+06u w=2e+06u
X277 vdd ctl3 nctl3 w_n2041_379 sky130_fd_pr__pfet_01v8_hvt ad=0p pd=0u as=0p ps=0u w=1e+06u l=150000u
X278 out nctl4 sky130_fd_pr__cap_mim_m3_1 l=2e+06u w=2e+06u
X279 out dummy_bot sky130_fd_pr__cap_mim_m3_1 l=2e+06u w=2e+06u
X280 out nctl7 sky130_fd_pr__cap_mim_m3_1 l=2e+06u w=2e+06u
X281 vdd sample a_44621_8468 w_45973_1664 sky130_fd_pr__pfet_01v8_hvt ad=0p pd=0u as=0p ps=0u w=1e+06u l=150000u
X282 nctl7 ctl7 vdd w_n2041_379 sky130_fd_pr__pfet_01v8_hvt ad=0p pd=0u as=0p ps=0u w=1e+06u l=150000u
X283 a_44621_8468 sample vss vss sky130_fd_pr__nfet_01v8 ad=0p pd=0u as=0p ps=0u w=650000u l=150000u
X284 nctl3 ctl3 vss vss sky130_fd_pr__nfet_01v8 ad=1.755e+11p pd=1.84e+06u as=0p ps=0u w=650000u l=150000u
X285 vss ctl5 nctl5 vss sky130_fd_pr__nfet_01v8 ad=0p pd=0u as=0p ps=0u w=650000u l=150000u
X286 vss sample a_44621_2120 vss sky130_fd_pr__nfet_01v8 ad=0p pd=0u as=0p ps=0u w=650000u l=150000u
X287 out nctl6 sky130_fd_pr__cap_mim_m3_1 l=2e+06u w=2e+06u
X288 out a_45464_2123 vin vss sky130_fd_pr__nfet_01v8 ad=0p pd=0u as=0p ps=0u w=1e+06u l=300000u
X289 vin a_45464_4239 out vss sky130_fd_pr__nfet_01v8 ad=0p pd=0u as=0p ps=0u w=1e+06u l=300000u
X290 vin a_44621_2120 out vdd sky130_fd_pr__pfet_01v8 ad=0p pd=0u as=0p ps=0u w=1e+06u l=300000u
X291 out nctl7 sky130_fd_pr__cap_mim_m3_1 l=2e+06u w=2e+06u
X292 out nctl7 sky130_fd_pr__cap_mim_m3_1 l=2e+06u w=2e+06u
X293 vin a_44621_4236 out vdd sky130_fd_pr__pfet_01v8 ad=0p pd=0u as=0p ps=0u w=1e+06u l=300000u
X294 out dummy_bot sky130_fd_pr__cap_mim_m3_1 l=2e+06u w=2e+06u
X295 out nctl7 sky130_fd_pr__cap_mim_m3_1 l=2e+06u w=2e+06u
X296 vin a_44621_8468 out vdd sky130_fd_pr__pfet_01v8 ad=0p pd=0u as=0p ps=0u w=1e+06u l=300000u
X297 out dummy_bot sky130_fd_pr__cap_mim_m3_1 l=2e+06u w=2e+06u
X298 out nctl6 sky130_fd_pr__cap_mim_m3_1 l=2e+06u w=2e+06u
X299 out nctl7 sky130_fd_pr__cap_mim_m3_1 l=2e+06u w=2e+06u
X300 out nctl7 sky130_fd_pr__cap_mim_m3_1 l=2e+06u w=2e+06u
X301 out nctl6 sky130_fd_pr__cap_mim_m3_1 l=2e+06u w=2e+06u
X302 out nctl6 sky130_fd_pr__cap_mim_m3_1 l=2e+06u w=2e+06u
X303 out dummy_bot sky130_fd_pr__cap_mim_m3_1 l=2e+06u w=2e+06u
X304 nctl6 ctl6 vdd w_n2041_379 sky130_fd_pr__pfet_01v8_hvt ad=0p pd=0u as=0p ps=0u w=1e+06u l=150000u
X305 out a_45464_2123 vin vss sky130_fd_pr__nfet_01v8 ad=0p pd=0u as=0p ps=0u w=1e+06u l=300000u
X306 nctl5 ctl5 vdd w_n2041_379 sky130_fd_pr__pfet_01v8_hvt ad=0p pd=0u as=0p ps=0u w=1e+06u l=150000u
X307 a_44621_2120 sample vdd w_45973_1664 sky130_fd_pr__pfet_01v8_hvt ad=0p pd=0u as=0p ps=0u w=1e+06u l=150000u
X308 vin a_45464_2123 out vss sky130_fd_pr__nfet_01v8 ad=0p pd=0u as=0p ps=0u w=1e+06u l=300000u
X309 vin a_45464_6355 out vss sky130_fd_pr__nfet_01v8 ad=0p pd=0u as=0p ps=0u w=1e+06u l=300000u
X310 vss sample a_44621_8468 vss sky130_fd_pr__nfet_01v8 ad=0p pd=0u as=0p ps=0u w=650000u l=150000u
X311 out nctl7 sky130_fd_pr__cap_mim_m3_1 l=2e+06u w=2e+06u
X312 out nctl6 sky130_fd_pr__cap_mim_m3_1 l=2e+06u w=2e+06u
X313 vdd a_44621_2120 a_45464_2123 w_45973_1664 sky130_fd_pr__pfet_01v8_hvt ad=0p pd=0u as=0p ps=0u w=1e+06u l=150000u
X314 out a_44621_8468 vin vdd sky130_fd_pr__pfet_01v8 ad=0p pd=0u as=0p ps=0u w=1e+06u l=300000u
X315 out nctl4 sky130_fd_pr__cap_mim_m3_1 l=2e+06u w=2e+06u
X316 out dummy_bot sky130_fd_pr__cap_mim_m3_1 l=2e+06u w=2e+06u
X317 out dummy_bot sky130_fd_pr__cap_mim_m3_1 l=2e+06u w=2e+06u
X318 out nctl7 sky130_fd_pr__cap_mim_m3_1 l=2e+06u w=2e+06u
X319 out nctl7 sky130_fd_pr__cap_mim_m3_1 l=2e+06u w=2e+06u
X320 a_44621_6352 sample vdd w_45973_1664 sky130_fd_pr__pfet_01v8_hvt ad=0p pd=0u as=0p ps=0u w=1e+06u l=150000u
X321 out nctl6 sky130_fd_pr__cap_mim_m3_1 l=2e+06u w=2e+06u
X322 a_45464_2123 a_44621_2120 vss vss sky130_fd_pr__nfet_01v8 ad=0p pd=0u as=0p ps=0u w=650000u l=150000u
X323 vdd vss vdd w_45973_1664 sky130_fd_pr__pfet_01v8_hvt ad=0p pd=0u as=0p ps=0u w=870000u l=590000u
X324 vdd a_44621_6352 a_45464_6355 w_45973_1664 sky130_fd_pr__pfet_01v8_hvt ad=0p pd=0u as=0p ps=0u w=1e+06u l=150000u
X325 vss vdd vss vss sky130_fd_pr__nfet_01v8 ad=0p pd=0u as=0p ps=0u w=550000u l=590000u
X326 out dummy_bot sky130_fd_pr__cap_mim_m3_1 l=2e+06u w=2e+06u
X327 out nctl7 sky130_fd_pr__cap_mim_m3_1 l=2e+06u w=2e+06u
X328 out nctl7 sky130_fd_pr__cap_mim_m3_1 l=2e+06u w=2e+06u
X329 out nctl5 sky130_fd_pr__cap_mim_m3_1 l=2e+06u w=2e+06u
X330 out dummy_bot sky130_fd_pr__cap_mim_m3_1 l=2e+06u w=2e+06u
X331 out nctl7 sky130_fd_pr__cap_mim_m3_1 l=2e+06u w=2e+06u
X332 out nctl6 sky130_fd_pr__cap_mim_m3_1 l=2e+06u w=2e+06u
X333 out nctl7 sky130_fd_pr__cap_mim_m3_1 l=2e+06u w=2e+06u
X334 out nctl7 sky130_fd_pr__cap_mim_m3_1 l=2e+06u w=2e+06u
X335 out dummy_bot sky130_fd_pr__cap_mim_m3_1 l=2e+06u w=2e+06u
X336 out nctl6 sky130_fd_pr__cap_mim_m3_1 l=2e+06u w=2e+06u
X337 out nctl7 sky130_fd_pr__cap_mim_m3_1 l=2e+06u w=2e+06u
X338 out nctl7 sky130_fd_pr__cap_mim_m3_1 l=2e+06u w=2e+06u
X339 out nctl6 sky130_fd_pr__cap_mim_m3_1 l=2e+06u w=2e+06u
X340 out a_44621_6352 vin vdd sky130_fd_pr__pfet_01v8 ad=0p pd=0u as=0p ps=0u w=1e+06u l=300000u
X341 out dummy_bot sky130_fd_pr__cap_mim_m3_1 l=2e+06u w=2e+06u
X342 out nctl4 sky130_fd_pr__cap_mim_m3_1 l=2e+06u w=2e+06u
X343 vin a_45464_4239 out vss sky130_fd_pr__nfet_01v8 ad=0p pd=0u as=0p ps=0u w=1e+06u l=300000u
X344 out nctl6 sky130_fd_pr__cap_mim_m3_1 l=2e+06u w=2e+06u
X345 out a_45464_8471 vin vss sky130_fd_pr__nfet_01v8 ad=0p pd=0u as=0p ps=0u w=1e+06u l=300000u
X346 vss ctl1 nctl1 vss sky130_fd_pr__nfet_01v8 ad=0p pd=0u as=0p ps=0u w=650000u l=150000u
X347 out nctl7 sky130_fd_pr__cap_mim_m3_1 l=2e+06u w=2e+06u
X348 out a_44621_8468 vin vdd sky130_fd_pr__pfet_01v8 ad=0p pd=0u as=0p ps=0u w=1e+06u l=300000u
X349 vdd vss vdd w_45973_1664 sky130_fd_pr__pfet_01v8_hvt ad=0p pd=0u as=0p ps=0u w=870000u l=590000u
X350 out nctl7 sky130_fd_pr__cap_mim_m3_1 l=2e+06u w=2e+06u
X351 out nctl7 sky130_fd_pr__cap_mim_m3_1 l=2e+06u w=2e+06u
X352 out nctl6 sky130_fd_pr__cap_mim_m3_1 l=2e+06u w=2e+06u
X353 out nctl7 sky130_fd_pr__cap_mim_m3_1 l=2e+06u w=2e+06u
X354 vin a_44621_4236 out vdd sky130_fd_pr__pfet_01v8 ad=0p pd=0u as=0p ps=0u w=1e+06u l=300000u
X355 out nctl7 sky130_fd_pr__cap_mim_m3_1 l=2e+06u w=2e+06u
X356 out nctl7 sky130_fd_pr__cap_mim_m3_1 l=2e+06u w=2e+06u
X357 out dummy_bot sky130_fd_pr__cap_mim_m3_1 l=2e+06u w=2e+06u
X358 out nctl6 sky130_fd_pr__cap_mim_m3_1 l=2e+06u w=2e+06u
X359 vss sample a_44621_8468 vss sky130_fd_pr__nfet_01v8 ad=0p pd=0u as=0p ps=0u w=650000u l=150000u
X360 vin a_45464_8471 out vss sky130_fd_pr__nfet_01v8 ad=0p pd=0u as=0p ps=0u w=1e+06u l=300000u
X361 vss ctl3 nctl3 vss sky130_fd_pr__nfet_01v8 ad=0p pd=0u as=0p ps=0u w=650000u l=150000u
X362 vin a_45464_2123 out vss sky130_fd_pr__nfet_01v8 ad=0p pd=0u as=0p ps=0u w=1e+06u l=300000u
X363 out nctl7 sky130_fd_pr__cap_mim_m3_1 l=2e+06u w=2e+06u
X364 vdd sample a_44621_2120 w_45973_1664 sky130_fd_pr__pfet_01v8_hvt ad=0p pd=0u as=0p ps=0u w=1e+06u l=150000u
X365 out nctl7 sky130_fd_pr__cap_mim_m3_1 l=2e+06u w=2e+06u
X366 vss vdd vss vss sky130_fd_pr__nfet_01v8 ad=0p pd=0u as=0p ps=0u w=550000u l=590000u
X367 out nctl7 sky130_fd_pr__cap_mim_m3_1 l=2e+06u w=2e+06u
X368 a_45464_2123 a_44621_2120 vdd w_45973_1664 sky130_fd_pr__pfet_01v8_hvt ad=0p pd=0u as=0p ps=0u w=1e+06u l=150000u
X369 out nctl6 sky130_fd_pr__cap_mim_m3_1 l=2e+06u w=2e+06u
X370 out dummy_bot sky130_fd_pr__cap_mim_m3_1 l=2e+06u w=2e+06u
X371 out nctl4 sky130_fd_pr__cap_mim_m3_1 l=2e+06u w=2e+06u
X372 out dummy_bot sky130_fd_pr__cap_mim_m3_1 l=2e+06u w=2e+06u
X373 out nctl7 sky130_fd_pr__cap_mim_m3_1 l=2e+06u w=2e+06u
X374 out nctl5 sky130_fd_pr__cap_mim_m3_1 l=2e+06u w=2e+06u
X375 out dummy_bot sky130_fd_pr__cap_mim_m3_1 l=2e+06u w=2e+06u
X376 out nctl7 sky130_fd_pr__cap_mim_m3_1 l=2e+06u w=2e+06u
X377 vin a_44621_8468 out vdd sky130_fd_pr__pfet_01v8 ad=0p pd=0u as=0p ps=0u w=1e+06u l=300000u
X378 out nctl4 sky130_fd_pr__cap_mim_m3_1 l=2e+06u w=2e+06u
X379 a_45464_2123 a_44621_2120 vss vss sky130_fd_pr__nfet_01v8 ad=0p pd=0u as=0p ps=0u w=650000u l=150000u
X380 out nctl7 sky130_fd_pr__cap_mim_m3_1 l=2e+06u w=2e+06u
X381 out nctl7 sky130_fd_pr__cap_mim_m3_1 l=2e+06u w=2e+06u
X382 out dummy_bot sky130_fd_pr__cap_mim_m3_1 l=2e+06u w=2e+06u
X383 out nctl7 sky130_fd_pr__cap_mim_m3_1 l=2e+06u w=2e+06u
X384 vin a_44621_4236 out vdd sky130_fd_pr__pfet_01v8 ad=0p pd=0u as=0p ps=0u w=1e+06u l=300000u
X385 out dummy_bot sky130_fd_pr__cap_mim_m3_1 l=2e+06u w=2e+06u
X386 out nctl7 sky130_fd_pr__cap_mim_m3_1 l=2e+06u w=2e+06u
X387 out nctl5 sky130_fd_pr__cap_mim_m3_1 l=2e+06u w=2e+06u