* SPICE3 file created from decoder4to16.ext - technology: sky130A


* Top level circuit decoder4to16

.subckt decoder4to16 vdd vss out_15_ out_14_ out_13_ out_12_ out_11_ out_10_ out_9_ out_8_ out_7_ out_6_ out_5_ out_4_ out_3_ out_2_ out_1_ out_0_ in_0_ in_1_ in_2_ in_3_
X0 vss a_1065_8207# a_3933_3855# vss sky130_fd_pr__nfet_01v8 ad=7.2939e+13p pd=7.8335e+08u as=1.755e+11p ps=1.84e+06u w=650000u l=150000u
X1 out_10_ a_4127_3285# vss vss sky130_fd_pr__nfet_01v8 ad=5.265e+11p pd=5.52e+06u as=0p ps=0u w=650000u l=150000u
X2 a_1065_8207# a_897_8207# vss vss sky130_fd_pr__nfet_01v8 ad=5.265e+11p pd=5.52e+06u as=0p ps=0u w=650000u l=150000u
X3 a_1731_3543# a_823_6163# vdd vdd sky130_fd_pr__pfet_01v8_hvt ad=3.297e+11p pd=3.25e+06u as=1.05188e+14p ps=1.02261e+09u w=420000u l=150000u
X4 out_10_ a_4127_3285# vss vss sky130_fd_pr__nfet_01v8 ad=0p pd=0u as=0p ps=0u w=650000u l=150000u
X5 vss a_979_7637# a_1765_5807# vss sky130_fd_pr__nfet_01v8 ad=0p pd=0u as=1.404e+12p ps=1.472e+07u w=650000u l=150000u
X6 a_477_9071# a_1223_8725# vss vss sky130_fd_pr__nfet_01v8 ad=1.404e+12p pd=1.472e+07u as=0p ps=0u w=650000u l=150000u
X7 vdd vss vdd vdd sky130_fd_pr__pfet_01v8_hvt ad=0p pd=0u as=0p ps=0u w=870000u l=2.89e+06u
X8 a_477_9071# a_1223_8725# vss vss sky130_fd_pr__nfet_01v8 ad=0p pd=0u as=0p ps=0u w=650000u l=150000u
X9 vdd a_1775_4943# out_7_ vdd sky130_fd_pr__pfet_01v8_hvt ad=0p pd=0u as=5.4e+11p ps=5.08e+06u w=1e+06u l=150000u
X10 a_3567_1929# a_979_7637# a_903_7093# vdd sky130_fd_pr__pfet_01v8_hvt ad=1.33e+12p pd=1.266e+07u as=5.4e+11p ps=5.08e+06u w=1e+06u l=150000u
X11 a_4675_7882# a_1209_3311# vss vss sky130_fd_pr__nfet_01v8 ad=1.352e+11p pd=1.56e+06u as=0p ps=0u w=520000u l=150000u
X12 a_823_6163# a_3933_3855# vss vss sky130_fd_pr__nfet_01v8 ad=5.265e+11p pd=5.52e+06u as=0p ps=0u w=650000u l=150000u
X13 vdd a_855_1831# a_855_1679# vdd sky130_fd_pr__pfet_01v8_hvt ad=0p pd=0u as=2.054e+11p ps=2.1e+06u w=790000u l=150000u
X14 vss vdd vss vss sky130_fd_pr__nfet_01v8 ad=0p pd=0u as=0p ps=0u w=550000u l=1.05e+06u
X15 vdd vss vdd vdd sky130_fd_pr__pfet_01v8_hvt ad=0p pd=0u as=0p ps=0u w=870000u l=590000u
X16 a_3567_1929# a_1225_6183# a_3209_1929# vdd sky130_fd_pr__pfet_01v8_hvt ad=0p pd=0u as=1.08e+12p ps=1.016e+07u w=1e+06u l=150000u
X17 vdd in_2_ a_529_2767# vdd sky130_fd_pr__pfet_01v8_hvt ad=0p pd=0u as=2.7e+11p ps=2.54e+06u w=1e+06u l=150000u
X18 a_2041_6031# a_2011_6005# vdd vdd sky130_fd_pr__pfet_01v8_hvt ad=2.7e+11p pd=2.54e+06u as=0p ps=0u w=1e+06u l=150000u
X19 a_1765_5807# a_2847_5461# vss vss sky130_fd_pr__nfet_01v8 ad=0p pd=0u as=0p ps=0u w=650000u l=150000u
X20 a_477_9071# a_535_4917# vss vss sky130_fd_pr__nfet_01v8 ad=0p pd=0u as=0p ps=0u w=650000u l=150000u
X21 vss vdd vss vss sky130_fd_pr__nfet_01v8 ad=0p pd=0u as=0p ps=0u w=550000u l=590000u
X22 a_1485_6031# a_987_6077# vdd vdd sky130_fd_pr__pfet_01v8_hvt ad=2.6e+11p pd=2.52e+06u as=0p ps=0u w=1e+06u l=150000u
X23 a_1009_7663# a_979_7637# a_591_7663# vdd sky130_fd_pr__pfet_01v8_hvt ad=1.08e+12p pd=1.016e+07u as=1.33e+12p ps=1.266e+07u w=1e+06u l=150000u
X24 a_567_7093# a_903_7093# vss vss sky130_fd_pr__nfet_01v8 ad=1.69e+11p pd=1.82e+06u as=0p ps=0u w=650000u l=150000u
X25 a_1731_3543# a_2095_3632# a_2053_3677# vss sky130_fd_pr__nfet_01v8 ad=1.092e+11p pd=1.36e+06u as=8.82e+10p ps=1.26e+06u w=420000u l=150000u
X26 a_2221_7119# a_1723_7165# vss vss sky130_fd_pr__nfet_01v8 ad=1.654e+11p pd=1.82e+06u as=0p ps=0u w=650000u l=150000u
X27 vdd a_4618_2223# a_4219_6005# vdd sky130_fd_pr__pfet_01v8_hvt ad=0p pd=0u as=2.7e+11p ps=2.54e+06u w=1e+06u l=150000u
X28 a_4577_2767# a_2221_2767# vss vss sky130_fd_pr__nfet_01v8 ad=1.755e+11p pd=1.84e+06u as=0p ps=0u w=650000u l=150000u
X29 vdd vss vdd vdd sky130_fd_pr__pfet_01v8_hvt ad=0p pd=0u as=0p ps=0u w=870000u l=2.89e+06u
X30 vss a_1021_4399# a_4571_1455# vss sky130_fd_pr__nfet_01v8 ad=0p pd=0u as=1.554e+11p ps=1.58e+06u w=420000u l=150000u
X31 vdd vss vdd vdd sky130_fd_pr__pfet_01v8_hvt ad=0p pd=0u as=0p ps=0u w=870000u l=590000u
X32 a_1683_5487# a_389_5095# vdd vdd sky130_fd_pr__pfet_01v8_hvt ad=1.33e+12p pd=1.266e+07u as=0p ps=0u w=1e+06u l=150000u
X33 a_2921_1135# a_2825_1373# vss vss sky130_fd_pr__nfet_01v8 ad=1.755e+11p pd=1.84e+06u as=0p ps=0u w=650000u l=150000u
X34 vdd a_547_3575# a_1919_2197# vdd sky130_fd_pr__pfet_01v8_hvt ad=0p pd=0u as=2.7e+11p ps=2.54e+06u w=1e+06u l=150000u
X35 vss vdd vss vss sky130_fd_pr__nfet_01v8 ad=0p pd=0u as=0p ps=0u w=550000u l=1.05e+06u
X36 vdd a_897_8207# a_1065_8207# vdd sky130_fd_pr__pfet_01v8_hvt ad=0p pd=0u as=8.1e+11p ps=7.62e+06u w=1e+06u l=150000u
X37 vdd vss vdd vdd sky130_fd_pr__pfet_01v8_hvt ad=0p pd=0u as=0p ps=0u w=870000u l=1.05e+06u
X38 vss a_4577_2767# out_11_ vss sky130_fd_pr__nfet_01v8 ad=0p pd=0u as=5.265e+11p ps=5.52e+06u w=650000u l=150000u
X39 out_8_ a_4301_4943# vdd vdd sky130_fd_pr__pfet_01v8_hvt ad=8.1e+11p pd=7.62e+06u as=0p ps=0u w=1e+06u l=150000u
X40 vdd a_2921_1135# out_12_ vdd sky130_fd_pr__pfet_01v8_hvt ad=0p pd=0u as=8.1e+11p ps=7.62e+06u w=1e+06u l=150000u
X41 vdd vss vdd vdd sky130_fd_pr__pfet_01v8_hvt ad=0p pd=0u as=0p ps=0u w=870000u l=2.89e+06u
X42 a_529_2767# in_2_ vss vss sky130_fd_pr__nfet_01v8 ad=1.755e+11p pd=1.84e+06u as=0p ps=0u w=650000u l=150000u
X43 vss vdd vss vss sky130_fd_pr__nfet_01v8 ad=0p pd=0u as=0p ps=0u w=550000u l=2.89e+06u
X44 a_477_4943# a_389_5095# a_395_4943# vss sky130_fd_pr__nfet_01v8 ad=1.218e+11p pd=1.42e+06u as=1.092e+11p ps=1.36e+06u w=420000u l=150000u
X45 out_9_ a_4209_4399# vdd vdd sky130_fd_pr__pfet_01v8_hvt ad=8.1e+11p pd=7.62e+06u as=0p ps=0u w=1e+06u l=150000u
X46 vdd a_529_6575# a_697_6575# vdd sky130_fd_pr__pfet_01v8_hvt ad=0p pd=0u as=8.1e+11p ps=7.62e+06u w=1e+06u l=150000u
X47 vdd a_4219_6005# out_5_ vdd sky130_fd_pr__pfet_01v8_hvt ad=0p pd=0u as=8.1e+11p ps=7.62e+06u w=1e+06u l=150000u
X48 vdd a_933_4943# a_947_5487# vdd sky130_fd_pr__pfet_01v8_hvt ad=0p pd=0u as=2.65e+11p ps=2.53e+06u w=1e+06u l=150000u
X49 vss a_2921_1135# out_12_ vss sky130_fd_pr__nfet_01v8 ad=0p pd=0u as=5.265e+11p ps=5.52e+06u w=650000u l=150000u
X50 a_389_5095# a_2839_7093# vdd vdd sky130_fd_pr__pfet_01v8_hvt ad=8.1e+11p pd=7.62e+06u as=0p ps=0u w=1e+06u l=150000u
X51 vdd vss vdd vdd sky130_fd_pr__pfet_01v8_hvt ad=0p pd=0u as=0p ps=0u w=870000u l=590000u
X52 out_6_ a_3155_4399# vss vss sky130_fd_pr__nfet_01v8 ad=3.51e+11p pd=3.68e+06u as=0p ps=0u w=650000u l=150000u
X53 vdd a_823_6163# a_711_3631# vdd sky130_fd_pr__pfet_01v8_hvt ad=0p pd=0u as=2.73e+11p ps=2.98e+06u w=420000u l=150000u
X54 a_453_3433# a_3667_6549# vss vss sky130_fd_pr__nfet_01v8 ad=5.265e+11p pd=5.52e+06u as=0p ps=0u w=650000u l=150000u
X55 vss a_763_1135# a_855_1831# vss sky130_fd_pr__nfet_01v8 ad=0p pd=0u as=7.02e+11p ps=7.36e+06u w=650000u l=150000u
X56 vss a_4719_1679# a_1321_6183# vss sky130_fd_pr__nfet_01v8 ad=0p pd=0u as=3.51e+11p ps=3.68e+06u w=650000u l=150000u
X57 a_673_7663# a_485_7663# a_591_7663# vdd sky130_fd_pr__pfet_01v8_hvt ad=5.4e+11p pd=5.08e+06u as=0p ps=0u w=1e+06u l=150000u
X58 a_1367_7663# a_535_4917# vdd vdd sky130_fd_pr__pfet_01v8_hvt ad=1.33e+12p pd=1.266e+07u as=0p ps=0u w=1e+06u l=150000u
X59 out_1_ a_4577_8207# vss vss sky130_fd_pr__nfet_01v8 ad=5.265e+11p pd=5.52e+06u as=0p ps=0u w=650000u l=150000u
X60 vdd a_1919_2197# a_535_4917# vdd sky130_fd_pr__pfet_01v8_hvt ad=0p pd=0u as=8.1e+11p ps=7.62e+06u w=1e+06u l=150000u
X61 a_477_9071# a_1559_8725# vss vss sky130_fd_pr__nfet_01v8 ad=0p pd=0u as=0p ps=0u w=650000u l=150000u
X62 vdd a_897_8207# a_1065_8207# vdd sky130_fd_pr__pfet_01v8_hvt ad=0p pd=0u as=0p ps=0u w=1e+06u l=150000u
X63 vss a_3523_8207# out_2_ vss sky130_fd_pr__nfet_01v8 ad=0p pd=0u as=3.51e+11p ps=3.68e+06u w=650000u l=150000u
X64 out_1_ a_4577_8207# vss vss sky130_fd_pr__nfet_01v8 ad=0p pd=0u as=0p ps=0u w=650000u l=150000u
X65 vss a_855_1831# a_3667_6549# vss sky130_fd_pr__nfet_01v8 ad=0p pd=0u as=1.755e+11p ps=1.84e+06u w=650000u l=150000u
X66 vdd a_2921_1135# out_12_ vdd sky130_fd_pr__pfet_01v8_hvt ad=0p pd=0u as=0p ps=0u w=1e+06u l=150000u
X67 vss vdd vss vss sky130_fd_pr__nfet_01v8 ad=0p pd=0u as=0p ps=0u w=550000u l=1.05e+06u
X68 vss a_2011_6005# a_2041_6031# vss sky130_fd_pr__nfet_01v8 ad=0p pd=0u as=1.134e+11p ps=1.38e+06u w=420000u l=150000u
X69 out_8_ a_4301_4943# vdd vdd sky130_fd_pr__pfet_01v8_hvt ad=0p pd=0u as=0p ps=0u w=1e+06u l=150000u
X70 vdd vss vdd vdd sky130_fd_pr__pfet_01v8_hvt ad=0p pd=0u as=0p ps=0u w=870000u l=590000u
X71 out_9_ a_4209_4399# vdd vdd sky130_fd_pr__pfet_01v8_hvt ad=0p pd=0u as=0p ps=0u w=1e+06u l=150000u
X72 a_729_6305# a_2921_3311# vss vss sky130_fd_pr__nfet_01v8 ad=5.265e+11p pd=5.52e+06u as=0p ps=0u w=650000u l=150000u
X73 vdd vss vdd vdd sky130_fd_pr__pfet_01v8_hvt ad=0p pd=0u as=0p ps=0u w=870000u l=1.05e+06u
X74 out_6_ a_3155_4399# vdd vdd sky130_fd_pr__pfet_01v8_hvt ad=5.4e+11p pd=5.08e+06u as=0p ps=0u w=1e+06u l=150000u
X75 a_547_3575# a_529_2767# vdd vdd sky130_fd_pr__pfet_01v8_hvt ad=8.1e+11p pd=7.62e+06u as=0p ps=0u w=1e+06u l=150000u
X76 vdd a_1125_5487# a_3013_591# vdd sky130_fd_pr__pfet_01v8_hvt ad=0p pd=0u as=2.7e+11p ps=2.54e+06u w=1e+06u l=150000u
X77 vdd vss vdd vdd sky130_fd_pr__pfet_01v8_hvt ad=0p pd=0u as=0p ps=0u w=870000u l=4.73e+06u
X78 a_673_7663# a_485_7663# a_591_7663# vdd sky130_fd_pr__pfet_01v8_hvt ad=0p pd=0u as=0p ps=0u w=1e+06u l=150000u
X79 vdd a_529_6575# a_697_6575# vdd sky130_fd_pr__pfet_01v8_hvt ad=0p pd=0u as=0p ps=0u w=1e+06u l=150000u
X80 a_1223_8725# a_1827_4373# vdd vdd sky130_fd_pr__pfet_01v8_hvt ad=8.1e+11p pd=7.62e+06u as=0p ps=0u w=1e+06u l=150000u
X81 a_5043_4020# a_1485_6031# vdd vdd sky130_fd_pr__pfet_01v8_hvt ad=2.054e+11p pd=2.1e+06u as=0p ps=0u w=790000u l=150000u
X82 vss a_1487_565# a_979_7637# vss sky130_fd_pr__nfet_01v8 ad=0p pd=0u as=3.51e+11p ps=3.68e+06u w=650000u l=150000u
X83 a_2191_8181# a_4667_7165# vdd vdd sky130_fd_pr__pfet_01v8_hvt ad=2.6e+11p pd=2.52e+06u as=0p ps=0u w=1e+06u l=150000u
X84 vss vdd vss vss sky130_fd_pr__nfet_01v8 ad=0p pd=0u as=0p ps=0u w=550000u l=1.05e+06u
X85 vdd a_729_6305# a_1683_6575# vdd sky130_fd_pr__pfet_01v8_hvt ad=0p pd=0u as=1.092e+11p ps=1.36e+06u w=420000u l=150000u
X86 vss vdd vss vss sky130_fd_pr__nfet_01v8 ad=0p pd=0u as=0p ps=0u w=550000u l=590000u
X87 vss a_2835_5095# a_2787_4943# vss sky130_fd_pr__nfet_01v8 ad=0p pd=0u as=1.69e+11p ps=1.82e+06u w=650000u l=150000u
X88 a_823_6163# a_3933_3855# vdd vdd sky130_fd_pr__pfet_01v8_hvt ad=8.1e+11p pd=7.62e+06u as=0p ps=0u w=1e+06u l=150000u
X89 vss vdd vss vss sky130_fd_pr__nfet_01v8 ad=0p pd=0u as=0p ps=0u w=550000u l=2.89e+06u
X90 a_4209_4399# a_2042_8207# vdd vdd sky130_fd_pr__pfet_01v8_hvt ad=2.7e+11p pd=2.54e+06u as=0p ps=0u w=1e+06u l=150000u
X91 vss a_4209_591# out_14_ vss sky130_fd_pr__nfet_01v8 ad=0p pd=0u as=5.265e+11p ps=5.52e+06u w=650000u l=150000u
X92 vdd in_0_ a_897_8207# vdd sky130_fd_pr__pfet_01v8_hvt ad=0p pd=0u as=2.7e+11p ps=2.54e+06u w=1e+06u l=150000u
X93 a_4179_1135# a_1225_6183# vdd vdd sky130_fd_pr__pfet_01v8_hvt ad=1.344e+11p pd=1.48e+06u as=0p ps=0u w=420000u l=150000u
X94 out_13_ a_1551_1653# vdd vdd sky130_fd_pr__pfet_01v8_hvt ad=8.1e+11p pd=7.62e+06u as=0p ps=0u w=1e+06u l=150000u
X95 a_1225_6183# a_3391_2197# vdd vdd sky130_fd_pr__pfet_01v8_hvt ad=8.1e+11p pd=7.62e+06u as=0p ps=0u w=1e+06u l=150000u
X96 a_1776_5099# a_1775_3855# vss vss sky130_fd_pr__nfet_01v8 ad=1.352e+11p pd=1.56e+06u as=0p ps=0u w=520000u l=150000u
X97 a_737_4917# a_3051_8725# vdd vdd sky130_fd_pr__pfet_01v8_hvt ad=5.4e+11p pd=5.08e+06u as=0p ps=0u w=1e+06u l=150000u
X98 vss a_4209_4399# out_9_ vss sky130_fd_pr__nfet_01v8 ad=0p pd=0u as=5.265e+11p ps=5.52e+06u w=650000u l=150000u
X99 a_1953_6941# a_1683_6575# a_1849_6575# vss sky130_fd_pr__nfet_01v8 ad=8.82e+10p pd=1.26e+06u as=1.092e+11p ps=1.36e+06u w=420000u l=150000u
X100 vdd in_1_ a_529_6575# vdd sky130_fd_pr__pfet_01v8_hvt ad=0p pd=0u as=2.7e+11p ps=2.54e+06u w=1e+06u l=150000u
X101 out_7_ a_1775_4943# vss vss sky130_fd_pr__nfet_01v8 ad=3.51e+11p pd=3.68e+06u as=0p ps=0u w=650000u l=150000u
X102 vss a_763_1135# a_855_1831# vss sky130_fd_pr__nfet_01v8 ad=0p pd=0u as=0p ps=0u w=650000u l=150000u
X103 vss a_2787_4943# a_2787_8207# vss sky130_fd_pr__nfet_01v8 ad=0p pd=0u as=1.113e+11p ps=1.37e+06u w=420000u l=150000u
X104 a_935_3829# a_697_6575# vdd vdd sky130_fd_pr__pfet_01v8_hvt ad=2.6e+11p pd=2.52e+06u as=0p ps=0u w=1e+06u l=150000u
X105 out_2_ a_3523_8207# vdd vdd sky130_fd_pr__pfet_01v8_hvt ad=5.4e+11p pd=5.08e+06u as=0p ps=0u w=1e+06u l=150000u
X106 vdd a_4351_5487# out_4_ vdd sky130_fd_pr__pfet_01v8_hvt ad=0p pd=0u as=5.4e+11p ps=5.08e+06u w=1e+06u l=150000u
X107 vss a_3391_2197# a_1225_6183# vss sky130_fd_pr__nfet_01v8 ad=0p pd=0u as=5.265e+11p ps=5.52e+06u w=650000u l=150000u
X108 a_1171_8751# a_1223_8725# a_813_8751# vdd sky130_fd_pr__pfet_01v8_hvt ad=1.33e+12p pd=1.266e+07u as=1.08e+12p ps=1.016e+07u w=1e+06u l=150000u
X109 a_1225_6183# a_3391_2197# vdd vdd sky130_fd_pr__pfet_01v8_hvt ad=0p pd=0u as=0p ps=0u w=1e+06u l=150000u
X110 vss vdd vss vss sky130_fd_pr__nfet_01v8 ad=0p pd=0u as=0p ps=0u w=550000u l=1.05e+06u
X111 vss vdd vss vss sky130_fd_pr__nfet_01v8 ad=0p pd=0u as=0p ps=0u w=550000u l=1.05e+06u
X112 vdd vss vdd vdd sky130_fd_pr__pfet_01v8_hvt ad=0p pd=0u as=0p ps=0u w=870000u l=1.05e+06u
X113 vdd a_4547_7119# a_4667_7165# vdd sky130_fd_pr__pfet_01v8_hvt ad=0p pd=0u as=2.73e+11p ps=2.98e+06u w=420000u l=150000u
X114 vss vdd vss vss sky130_fd_pr__nfet_01v8 ad=0p pd=0u as=0p ps=0u w=550000u l=2.89e+06u
X115 vss a_3933_3855# a_823_6163# vss sky130_fd_pr__nfet_01v8 ad=0p pd=0u as=0p ps=0u w=650000u l=150000u
X116 vss a_979_7637# a_903_7093# vss sky130_fd_pr__nfet_01v8 ad=0p pd=0u as=1.404e+12p ps=1.472e+07u w=650000u l=150000u
X117 vss a_535_4917# a_673_7663# vss sky130_fd_pr__nfet_01v8 ad=0p pd=0u as=1.404e+12p ps=1.472e+07u w=650000u l=150000u
X118 a_2839_7093# a_855_1831# vss vss sky130_fd_pr__nfet_01v8 ad=1.755e+11p pd=1.84e+06u as=0p ps=0u w=650000u l=150000u
X119 vss vdd vss vss sky130_fd_pr__nfet_01v8 ad=0p pd=0u as=0p ps=0u w=550000u l=590000u
X120 vdd a_3013_591# out_15_ vdd sky130_fd_pr__pfet_01v8_hvt ad=0p pd=0u as=8.1e+11p ps=7.62e+06u w=1e+06u l=150000u
X121 vdd vss vdd vdd sky130_fd_pr__pfet_01v8_hvt ad=0p pd=0u as=0p ps=0u w=870000u l=1.05e+06u
X122 vss a_389_5095# a_477_9071# vss sky130_fd_pr__nfet_01v8 ad=0p pd=0u as=0p ps=0u w=650000u l=150000u
X123 vss a_4127_8725# out_3_ vss sky130_fd_pr__nfet_01v8 ad=0p pd=0u as=5.265e+11p ps=5.52e+06u w=650000u l=150000u
X124 out_2_ a_3523_8207# vdd vdd sky130_fd_pr__pfet_01v8_hvt ad=0p pd=0u as=0p ps=0u w=1e+06u l=150000u
X125 vss a_567_7093# out_0_ vss sky130_fd_pr__nfet_01v8 ad=0p pd=0u as=3.51e+11p ps=3.68e+06u w=650000u l=150000u
X126 a_4209_591# a_2965_8207# vss vss sky130_fd_pr__nfet_01v8 ad=1.755e+11p pd=1.84e+06u as=0p ps=0u w=650000u l=150000u
X127 vss a_933_4943# a_947_5487# vss sky130_fd_pr__nfet_01v8 ad=0p pd=0u as=1.113e+11p ps=1.37e+06u w=420000u l=150000u
X128 vdd vss vdd vdd sky130_fd_pr__pfet_01v8_hvt ad=0p pd=0u as=0p ps=0u w=870000u l=590000u
X129 vdd vss vdd vdd sky130_fd_pr__pfet_01v8_hvt ad=0p pd=0u as=0p ps=0u w=870000u l=1.97e+06u
X130 a_2965_8207# a_2787_8207# vss vss sky130_fd_pr__nfet_01v8 ad=1.134e+11p pd=1.38e+06u as=0p ps=0u w=420000u l=150000u
X131 vss vdd vss vss sky130_fd_pr__nfet_01v8 ad=0p pd=0u as=0p ps=0u w=550000u l=1.97e+06u
X132 vss vdd vss vss sky130_fd_pr__nfet_01v8 ad=0p pd=0u as=0p ps=0u w=550000u l=1.05e+06u
X133 out_1_ a_4577_8207# vdd vdd sky130_fd_pr__pfet_01v8_hvt ad=8.1e+11p pd=7.62e+06u as=0p ps=0u w=1e+06u l=150000u
X134 a_1849_6575# a_737_4917# vdd vdd sky130_fd_pr__pfet_01v8_hvt ad=3.297e+11p pd=3.25e+06u as=0p ps=0u w=420000u l=150000u
X135 a_2125_6941# a_737_4917# a_2025_6941# vss sky130_fd_pr__nfet_01v8 ad=1.218e+11p pd=1.42e+06u as=1.47e+11p ps=1.54e+06u w=420000u l=150000u
X136 a_1919_2197# a_547_3575# vss vss sky130_fd_pr__nfet_01v8 ad=1.755e+11p pd=1.84e+06u as=0p ps=0u w=650000u l=150000u
X137 out_4_ a_4351_5487# vss vss sky130_fd_pr__nfet_01v8 ad=3.51e+11p pd=3.68e+06u as=0p ps=0u w=650000u l=150000u
X138 vdd vss vdd vdd sky130_fd_pr__pfet_01v8_hvt ad=0p pd=0u as=0p ps=0u w=870000u l=590000u
X139 a_641_4917# a_935_3829# vss vss sky130_fd_pr__nfet_01v8 ad=3.51e+11p pd=3.68e+06u as=0p ps=0u w=650000u l=150000u
X140 vss a_1223_8725# a_3145_7983# vss sky130_fd_pr__nfet_01v8 ad=0p pd=0u as=7.02e+11p ps=7.36e+06u w=650000u l=150000u
X141 vdd vss vdd vdd sky130_fd_pr__pfet_01v8_hvt ad=0p pd=0u as=0p ps=0u w=870000u l=1.05e+06u
X142 vdd vss vdd vdd sky130_fd_pr__pfet_01v8_hvt ad=0p pd=0u as=0p ps=0u w=870000u l=1.05e+06u
X143 a_3563_2813# a_3509_2919# a_3463_2813# vss sky130_fd_pr__nfet_01v8 ad=1.176e+11p pd=1.4e+06u as=1.47e+11p ps=1.54e+06u w=420000u l=150000u
X144 vdd vss vdd vdd sky130_fd_pr__pfet_01v8_hvt ad=0p pd=0u as=0p ps=0u w=870000u l=1.97e+06u
X145 vss a_897_8207# a_1065_8207# vss sky130_fd_pr__nfet_01v8 ad=0p pd=0u as=0p ps=0u w=650000u l=150000u
X146 vdd vss vdd vdd sky130_fd_pr__pfet_01v8_hvt ad=0p pd=0u as=0p ps=0u w=870000u l=1.97e+06u
X147 vss a_4127_3285# out_10_ vss sky130_fd_pr__nfet_01v8 ad=0p pd=0u as=0p ps=0u w=650000u l=150000u
X148 a_697_6575# a_529_6575# vdd vdd sky130_fd_pr__pfet_01v8_hvt ad=0p pd=0u as=0p ps=0u w=1e+06u l=150000u
X149 a_1209_3311# a_711_3631# vdd vdd sky130_fd_pr__pfet_01v8_hvt ad=2.6e+11p pd=2.52e+06u as=0p ps=0u w=1e+06u l=150000u
X150 a_1765_5807# a_979_7637# vss vss sky130_fd_pr__nfet_01v8 ad=0p pd=0u as=0p ps=0u w=650000u l=150000u
X151 a_903_7093# a_1025_1679# vss vss sky130_fd_pr__nfet_01v8 ad=0p pd=0u as=0p ps=0u w=650000u l=150000u
X152 vss a_529_6575# a_697_6575# vss sky130_fd_pr__nfet_01v8 ad=0p pd=0u as=5.265e+11p ps=5.52e+06u w=650000u l=150000u
X153 vdd a_697_6575# a_1827_4373# vdd sky130_fd_pr__pfet_01v8_hvt ad=0p pd=0u as=2.7e+11p ps=2.54e+06u w=1e+06u l=150000u
X154 vdd a_3150_2919# a_3019_6557# vdd sky130_fd_pr__pfet_01v8_hvt ad=0p pd=0u as=2.6e+11p ps=2.52e+06u w=1e+06u l=150000u
X155 vss a_1223_8725# a_477_9071# vss sky130_fd_pr__nfet_01v8 ad=0p pd=0u as=0p ps=0u w=650000u l=150000u
X156 a_2835_5095# a_453_3433# vdd vdd sky130_fd_pr__pfet_01v8_hvt ad=3.297e+11p pd=3.25e+06u as=0p ps=0u w=420000u l=150000u
X157 vdd a_3013_591# out_15_ vdd sky130_fd_pr__pfet_01v8_hvt ad=0p pd=0u as=0p ps=0u w=1e+06u l=150000u
X158 vdd vss vdd vdd sky130_fd_pr__pfet_01v8_hvt ad=0p pd=0u as=0p ps=0u w=870000u l=1.05e+06u
X159 vss a_1223_8725# a_477_9071# vss sky130_fd_pr__nfet_01v8 ad=0p pd=0u as=0p ps=0u w=650000u l=150000u
X160 vss vdd vss vss sky130_fd_pr__nfet_01v8 ad=0p pd=0u as=0p ps=0u w=550000u l=590000u
X161 vdd vss vdd vdd sky130_fd_pr__pfet_01v8_hvt ad=0p pd=0u as=0p ps=0u w=870000u l=590000u
X162 a_1065_8207# a_897_8207# vdd vdd sky130_fd_pr__pfet_01v8_hvt ad=0p pd=0u as=0p ps=0u w=1e+06u l=150000u
X163 vss a_729_6305# a_903_7093# vss sky130_fd_pr__nfet_01v8 ad=0p pd=0u as=0p ps=0u w=650000u l=150000u
X164 out_1_ a_4577_8207# vss vss sky130_fd_pr__nfet_01v8 ad=0p pd=0u as=0p ps=0u w=650000u l=150000u
X165 a_2011_6005# a_2167_6164# vdd vdd sky130_fd_pr__pfet_01v8_hvt ad=2.65e+11p pd=2.53e+06u as=0p ps=0u w=1e+06u l=150000u
X166 a_3567_1929# a_1225_6183# a_3209_1929# vdd sky130_fd_pr__pfet_01v8_hvt ad=0p pd=0u as=0p ps=0u w=1e+06u l=150000u
X167 a_2221_7119# a_1723_7165# vdd vdd sky130_fd_pr__pfet_01v8_hvt ad=2.6e+11p pd=2.52e+06u as=0p ps=0u w=1e+06u l=150000u
X168 vss vdd vss vss sky130_fd_pr__nfet_01v8 ad=0p pd=0u as=0p ps=0u w=550000u l=1.05e+06u
X169 vss a_4577_2767# out_11_ vss sky130_fd_pr__nfet_01v8 ad=0p pd=0u as=0p ps=0u w=650000u l=150000u
X170 vss vdd vss vss sky130_fd_pr__nfet_01v8 ad=0p pd=0u as=0p ps=0u w=550000u l=1.05e+06u
X171 a_3245_6031# a_729_6305# vss vss sky130_fd_pr__nfet_01v8 ad=1.218e+11p pd=1.42e+06u as=0p ps=0u w=420000u l=150000u
X172 a_673_7663# a_485_7663# vss vss sky130_fd_pr__nfet_01v8 ad=0p pd=0u as=0p ps=0u w=650000u l=150000u
X173 a_3111_6183# a_3475_6005# a_3433_6031# vss sky130_fd_pr__nfet_01v8 ad=1.092e+11p pd=1.36e+06u as=8.82e+10p ps=1.26e+06u w=420000u l=150000u
X174 vdd a_1827_4373# a_1223_8725# vdd sky130_fd_pr__pfet_01v8_hvt ad=0p pd=0u as=0p ps=0u w=1e+06u l=150000u
X175 a_2839_7093# a_855_1831# vdd vdd sky130_fd_pr__pfet_01v8_hvt ad=2.7e+11p pd=2.54e+06u as=0p ps=0u w=1e+06u l=150000u
X176 vss vdd vss vss sky130_fd_pr__nfet_01v8 ad=0p pd=0u as=0p ps=0u w=550000u l=590000u
X177 vdd vss vdd vdd sky130_fd_pr__pfet_01v8_hvt ad=0p pd=0u as=0p ps=0u w=870000u l=2.89e+06u
X178 vdd a_1827_4373# a_1223_8725# vdd sky130_fd_pr__pfet_01v8_hvt ad=0p pd=0u as=0p ps=0u w=1e+06u l=150000u
X179 vss a_2825_1373# a_2921_1135# vss sky130_fd_pr__nfet_01v8 ad=0p pd=0u as=0p ps=0u w=650000u l=150000u
X180 a_1065_8207# a_897_8207# vdd vdd sky130_fd_pr__pfet_01v8_hvt ad=0p pd=0u as=0p ps=0u w=1e+06u l=150000u
X181 vdd vss vdd vdd sky130_fd_pr__pfet_01v8_hvt ad=0p pd=0u as=0p ps=0u w=870000u l=1.05e+06u
X182 a_1683_5487# a_389_5095# vdd vdd sky130_fd_pr__pfet_01v8_hvt ad=0p pd=0u as=0p ps=0u w=1e+06u l=150000u
X183 vdd vss vdd vdd sky130_fd_pr__pfet_01v8_hvt ad=0p pd=0u as=0p ps=0u w=870000u l=1.05e+06u
X184 out_8_ a_4301_4943# vdd vdd sky130_fd_pr__pfet_01v8_hvt ad=0p pd=0u as=0p ps=0u w=1e+06u l=150000u
X185 a_2840_6549# a_3019_6557# vss vss sky130_fd_pr__nfet_01v8 ad=1.092e+11p pd=1.36e+06u as=0p ps=0u w=420000u l=150000u
X186 vss vdd vss vss sky130_fd_pr__nfet_01v8 ad=0p pd=0u as=0p ps=0u w=550000u l=590000u
X187 out_5_ a_4219_6005# vdd vdd sky130_fd_pr__pfet_01v8_hvt ad=0p pd=0u as=0p ps=0u w=1e+06u l=150000u
X188 out_9_ a_4209_4399# vdd vdd sky130_fd_pr__pfet_01v8_hvt ad=0p pd=0u as=0p ps=0u w=1e+06u l=150000u
X189 a_979_7637# a_1487_565# vss vss sky130_fd_pr__nfet_01v8 ad=0p pd=0u as=0p ps=0u w=650000u l=150000u
X190 vss vdd vss vss sky130_fd_pr__nfet_01v8 ad=0p pd=0u as=0p ps=0u w=550000u l=590000u
X191 vss a_3155_4399# out_6_ vss sky130_fd_pr__nfet_01v8 ad=0p pd=0u as=0p ps=0u w=650000u l=150000u
X192 a_4209_4399# a_2042_8207# vss vss sky130_fd_pr__nfet_01v8 ad=1.755e+11p pd=1.84e+06u as=0p ps=0u w=650000u l=150000u
X193 vdd a_1827_4373# a_1223_8725# vdd sky130_fd_pr__pfet_01v8_hvt ad=0p pd=0u as=0p ps=0u w=1e+06u l=150000u
X194 a_1321_6183# a_4719_1679# vdd vdd sky130_fd_pr__pfet_01v8_hvt ad=5.4e+11p pd=5.08e+06u as=0p ps=0u w=1e+06u l=150000u
X195 a_1009_7663# a_1223_8725# a_1367_7663# vdd sky130_fd_pr__pfet_01v8_hvt ad=0p pd=0u as=0p ps=0u w=1e+06u l=150000u
X196 a_389_5095# a_2839_7093# vdd vdd sky130_fd_pr__pfet_01v8_hvt ad=0p pd=0u as=0p ps=0u w=1e+06u l=150000u
X197 a_855_1831# a_763_1135# vss vss sky130_fd_pr__nfet_01v8 ad=0p pd=0u as=0p ps=0u w=650000u l=150000u
X198 vdd a_1603_7119# a_1723_7165# vdd sky130_fd_pr__pfet_01v8_hvt ad=0p pd=0u as=2.73e+11p ps=2.98e+06u w=420000u l=150000u
X199 vss a_3141_3855# a_3155_4399# vss sky130_fd_pr__nfet_01v8 ad=0p pd=0u as=1.69e+11p ps=1.82e+06u w=650000u l=150000u
X200 vdd a_641_4917# a_1731_3543# vdd sky130_fd_pr__pfet_01v8_hvt ad=0p pd=0u as=0p ps=0u w=420000u l=150000u
X201 vss a_4577_8207# out_1_ vss sky130_fd_pr__nfet_01v8 ad=0p pd=0u as=0p ps=0u w=650000u l=150000u
X202 vss a_729_6305# a_671_6031# vss sky130_fd_pr__nfet_01v8 ad=0p pd=0u as=1.68e+11p ps=1.64e+06u w=420000u l=150000u
X203 a_1765_5807# a_389_5095# vss vss sky130_fd_pr__nfet_01v8 ad=0p pd=0u as=0p ps=0u w=650000u l=150000u
X204 vdd vss vdd vdd sky130_fd_pr__pfet_01v8_hvt ad=0p pd=0u as=0p ps=0u w=870000u l=1.05e+06u
X205 a_673_7663# a_1223_8725# vss vss sky130_fd_pr__nfet_01v8 ad=0p pd=0u as=0p ps=0u w=650000u l=150000u
X206 vss a_529_6575# a_697_6575# vss sky130_fd_pr__nfet_01v8 ad=0p pd=0u as=0p ps=0u w=650000u l=150000u
X207 vdd vss vdd vdd sky130_fd_pr__pfet_01v8_hvt ad=0p pd=0u as=0p ps=0u w=870000u l=1.05e+06u
X208 vss a_2839_7093# a_389_5095# vss sky130_fd_pr__nfet_01v8 ad=0p pd=0u as=5.265e+11p ps=5.52e+06u w=650000u l=150000u
X209 vss vdd vss vss sky130_fd_pr__nfet_01v8 ad=0p pd=0u as=0p ps=0u w=550000u l=1.05e+06u
X210 vdd vss vdd vdd sky130_fd_pr__pfet_01v8_hvt ad=0p pd=0u as=0p ps=0u w=870000u l=1.05e+06u
X211 a_673_7663# a_1223_8725# vss vss sky130_fd_pr__nfet_01v8 ad=0p pd=0u as=0p ps=0u w=650000u l=150000u
X212 vdd a_547_3575# a_855_4399# vdd sky130_fd_pr__pfet_01v8_hvt ad=0p pd=0u as=2.6e+11p ps=2.52e+06u w=1e+06u l=150000u
X213 vss vdd vss vss sky130_fd_pr__nfet_01v8 ad=0p pd=0u as=0p ps=0u w=550000u l=1.05e+06u
X214 a_2053_3677# a_1021_4399# a_1953_3677# vss sky130_fd_pr__nfet_01v8 ad=0p pd=0u as=1.47e+11p ps=1.54e+06u w=420000u l=150000u
X215 a_1171_8751# a_1559_8725# a_477_9071# vdd sky130_fd_pr__pfet_01v8_hvt ad=0p pd=0u as=5.4e+11p ps=5.08e+06u w=1e+06u l=150000u
X216 vdd a_729_6305# a_4351_7119# vdd sky130_fd_pr__pfet_01v8_hvt ad=0p pd=0u as=1.68e+11p ps=1.64e+06u w=420000u l=150000u
X217 a_4667_7165# a_737_4917# vdd vdd sky130_fd_pr__pfet_01v8_hvt ad=0p pd=0u as=0p ps=0u w=420000u l=150000u
X218 vdd a_3475_6005# a_3111_6183# vdd sky130_fd_pr__pfet_01v8_hvt ad=0p pd=0u as=3.297e+11p ps=3.25e+06u w=420000u l=150000u
X219 a_2095_3632# a_453_3433# vss vss sky130_fd_pr__nfet_01v8 ad=1.092e+11p pd=1.36e+06u as=0p ps=0u w=420000u l=150000u
X220 vdd a_855_1831# a_3667_6549# vdd sky130_fd_pr__pfet_01v8_hvt ad=0p pd=0u as=2.7e+11p ps=2.54e+06u w=1e+06u l=150000u
X221 vdd vss vdd vdd sky130_fd_pr__pfet_01v8_hvt ad=0p pd=0u as=0p ps=0u w=870000u l=1.97e+06u
X222 vss a_2221_7119# a_2971_3855# vss sky130_fd_pr__nfet_01v8 ad=0p pd=0u as=1.352e+11p ps=1.56e+06u w=520000u l=150000u
X223 vdd a_4179_1135# a_4299_1455# vdd sky130_fd_pr__pfet_01v8_hvt ad=0p pd=0u as=2.73e+11p ps=2.98e+06u w=420000u l=150000u
X224 vss a_535_4917# a_673_7663# vss sky130_fd_pr__nfet_01v8 ad=0p pd=0u as=0p ps=0u w=650000u l=150000u
X225 a_395_4943# a_641_4917# vdd vdd sky130_fd_pr__pfet_01v8_hvt ad=2.646e+11p pd=2.94e+06u as=0p ps=0u w=420000u l=150000u
X226 vss a_1919_2197# a_535_4917# vss sky130_fd_pr__nfet_01v8 ad=0p pd=0u as=5.265e+11p ps=5.52e+06u w=650000u l=150000u
X227 vss vdd vss vss sky130_fd_pr__nfet_01v8 ad=0p pd=0u as=0p ps=0u w=550000u l=1.05e+06u
X228 vss a_2012_8181# a_2042_8207# vss sky130_fd_pr__nfet_01v8 ad=0p pd=0u as=1.755e+11p ps=1.84e+06u w=650000u l=150000u
X229 vss a_1919_2197# a_535_4917# vss sky130_fd_pr__nfet_01v8 ad=0p pd=0u as=0p ps=0u w=650000u l=150000u
X230 vss a_1827_4373# a_1223_8725# vss sky130_fd_pr__nfet_01v8 ad=0p pd=0u as=5.265e+11p ps=5.52e+06u w=650000u l=150000u
X231 vss vdd vss vss sky130_fd_pr__nfet_01v8 ad=0p pd=0u as=0p ps=0u w=550000u l=590000u
X232 vss vdd vss vss sky130_fd_pr__nfet_01v8 ad=0p pd=0u as=0p ps=0u w=550000u l=1.05e+06u
X233 vdd vss vdd vdd sky130_fd_pr__pfet_01v8_hvt ad=0p pd=0u as=0p ps=0u w=870000u l=1.05e+06u
X234 a_3359_2813# a_1021_4399# vss vss sky130_fd_pr__nfet_01v8 ad=1.554e+11p pd=1.58e+06u as=0p ps=0u w=420000u l=150000u
X235 a_1171_8751# a_1559_8725# a_477_9071# vdd sky130_fd_pr__pfet_01v8_hvt ad=0p pd=0u as=0p ps=0u w=1e+06u l=150000u
X236 vss vdd vss vss sky130_fd_pr__nfet_01v8 ad=0p pd=0u as=0p ps=0u w=550000u l=1.05e+06u
X237 out_13_ a_1551_1653# vdd vdd sky130_fd_pr__pfet_01v8_hvt ad=0p pd=0u as=0p ps=0u w=1e+06u l=150000u
X238 a_3391_2197# a_697_6575# vdd vdd sky130_fd_pr__pfet_01v8_hvt ad=2.7e+11p pd=2.54e+06u as=0p ps=0u w=1e+06u l=150000u
X239 a_4588_2197# a_4767_2205# vss vss sky130_fd_pr__nfet_01v8 ad=1.092e+11p pd=1.36e+06u as=0p ps=0u w=420000u l=150000u
X240 vdd a_3667_6549# a_453_3433# vdd sky130_fd_pr__pfet_01v8_hvt ad=0p pd=0u as=8.1e+11p ps=7.62e+06u w=1e+06u l=150000u
X241 vdd a_1487_565# a_979_7637# vdd sky130_fd_pr__pfet_01v8_hvt ad=0p pd=0u as=5.4e+11p ps=5.08e+06u w=1e+06u l=150000u
X242 out_15_ a_3013_591# vdd vdd sky130_fd_pr__pfet_01v8_hvt ad=0p pd=0u as=0p ps=0u w=1e+06u l=150000u
X243 vdd a_3667_6549# a_453_3433# vdd sky130_fd_pr__pfet_01v8_hvt ad=0p pd=0u as=0p ps=0u w=1e+06u l=150000u
X244 a_2095_3632# a_453_3433# vdd vdd sky130_fd_pr__pfet_01v8_hvt ad=1.092e+11p pd=1.36e+06u as=0p ps=0u w=420000u l=150000u
X245 a_1065_8207# a_897_8207# vss vss sky130_fd_pr__nfet_01v8 ad=0p pd=0u as=0p ps=0u w=650000u l=150000u
X246 out_11_ a_4577_2767# vdd vdd sky130_fd_pr__pfet_01v8_hvt ad=8.1e+11p pd=7.62e+06u as=0p ps=0u w=1e+06u l=150000u
X247 vdd vss vdd vdd sky130_fd_pr__pfet_01v8_hvt ad=0p pd=0u as=0p ps=0u w=870000u l=1.05e+06u
X248 vdd a_2921_3311# a_729_6305# vdd sky130_fd_pr__pfet_01v8_hvt ad=0p pd=0u as=8.1e+11p ps=7.62e+06u w=1e+06u l=150000u
X249 a_389_5095# a_2839_7093# vss vss sky130_fd_pr__nfet_01v8 ad=0p pd=0u as=0p ps=0u w=650000u l=150000u
X250 vss a_855_4399# a_1021_4399# vss sky130_fd_pr__nfet_01v8 ad=0p pd=0u as=3.51e+11p ps=3.68e+06u w=650000u l=150000u
X251 a_2051_2919# a_1849_6575# vss vss sky130_fd_pr__nfet_01v8 ad=1.69e+11p pd=1.82e+06u as=0p ps=0u w=650000u l=150000u
X252 a_1171_8751# a_1223_8725# a_813_8751# vdd sky130_fd_pr__pfet_01v8_hvt ad=0p pd=0u as=0p ps=0u w=1e+06u l=150000u
X253 a_823_6163# a_3933_3855# vss vss sky130_fd_pr__nfet_01v8 ad=0p pd=0u as=0p ps=0u w=650000u l=150000u
X254 vss a_855_1831# a_2839_7093# vss sky130_fd_pr__nfet_01v8 ad=0p pd=0u as=0p ps=0u w=650000u l=150000u
X255 vdd a_1321_6183# a_3150_2919# vdd sky130_fd_pr__pfet_01v8_hvt ad=0p pd=0u as=2.73e+11p ps=2.98e+06u w=420000u l=150000u
X256 vdd a_1223_8725# a_2847_5461# vdd sky130_fd_pr__pfet_01v8_hvt ad=0p pd=0u as=2.6e+11p ps=2.52e+06u w=1e+06u l=150000u
X257 a_903_7093# a_1025_1679# vss vss sky130_fd_pr__nfet_01v8 ad=0p pd=0u as=0p ps=0u w=650000u l=150000u
X258 vss a_1551_1653# out_13_ vss sky130_fd_pr__nfet_01v8 ad=0p pd=0u as=5.265e+11p ps=5.52e+06u w=650000u l=150000u
X259 a_477_9071# a_535_4917# vss vss sky130_fd_pr__nfet_01v8 ad=0p pd=0u as=0p ps=0u w=650000u l=150000u
X260 vss vdd vss vss sky130_fd_pr__nfet_01v8 ad=0p pd=0u as=0p ps=0u w=550000u l=590000u
X261 a_903_7093# a_979_7637# a_3567_1929# vdd sky130_fd_pr__pfet_01v8_hvt ad=0p pd=0u as=0p ps=0u w=1e+06u l=150000u
X262 a_1209_3311# a_711_3631# vss vss sky130_fd_pr__nfet_01v8 ad=1.654e+11p pd=1.82e+06u as=0p ps=0u w=650000u l=150000u
X263 vdd vss vdd vdd sky130_fd_pr__pfet_01v8_hvt ad=0p pd=0u as=0p ps=0u w=870000u l=1.97e+06u
X264 vss a_1551_1653# out_13_ vss sky130_fd_pr__nfet_01v8 ad=0p pd=0u as=0p ps=0u w=650000u l=150000u