* SPICE3 file created from sarlogic.ext - technology: sky130A

.subckt sarlogic trim_4_ trim_3_ trim_2_ trim_1_ trim_0_ trimb_4_ trimb_3_ trimb_2_ trimb_1_ trimb_0_ clkc
+ comp cal en ctlp_9_ ctlp_8_ ctlp_7_ ctlp_6_ ctlp_5_ ctlp_4_ ctlp_3_ ctlp_2_ ctlp_1_ ctlp_0_ clk
+ result_9_ result_8_ result_7_ result_6_ result_5_ result_4_ result_3_ result_2_ result_1_ result_0_ ctln_9_
+ ctln_8_ ctln_7_ ctln_6_ ctln_5_ ctln_4_ ctln_3_ ctln_2_ ctln_1_ ctln_0_ valid rstn sample VPWR VGND
X0 a_5782_8983# a_5878_8725# VGND VGND sky130_fd_pr__nfet_01v8 ad=1.092e+11p pd=1.36e+06u as=2.27593e+14p ps=2.3678e+09u w=420000u l=150000u
X1 a_13239_2601# a_12889_2229# a_13144_2589# VPWR sky130_fd_pr__pfet_01v8_hvt ad=1.449e+11p pd=1.53e+06u as=1.302e+11p ps=1.46e+06u w=420000u l=150000u
X2 a_13359_9839# a_13269_10071# VPWR VPWR sky130_fd_pr__pfet_01v8_hvt ad=2.7e+11p pd=2.54e+06u as=3.38429e+14p ps=3.28145e+09u w=1e+06u l=150000u
X3 VPWR VGND VPWR VPWR sky130_fd_pr__pfet_01v8_hvt ad=0p pd=0u as=0p ps=0u w=870000u l=1.05e+06u
X4 VGND a_6200_5719# a_4713_7271# VGND sky130_fd_pr__nfet_01v8 ad=0p pd=0u as=1.69e+11p ps=1.82e+06u w=650000u l=150000u
X5 a_10865_4405# a_10699_4405# VPWR VPWR sky130_fd_pr__pfet_01v8_hvt ad=1.664e+11p pd=1.8e+06u as=0p ps=0u w=640000u l=150000u
X6 a_6177_7663# a_6000_7663# VPWR VPWR sky130_fd_pr__pfet_01v8_hvt ad=2.6e+11p pd=2.52e+06u as=0p ps=0u w=1e+06u l=150000u
X7 a_14096_8573# a_13091_8207# a_14020_8573# VPWR sky130_fd_pr__pfet_01v8_hvt ad=2.73e+11p pd=2.98e+06u as=9.66e+10p ps=1.3e+06u w=420000u l=150000u
X8 a_1307_7637# a_1151_7905# a_1452_7663# VPWR sky130_fd_pr__pfet_01v8_hvt ad=1.449e+11p pd=1.53e+06u as=3.402e+11p ps=3.3e+06u w=420000u l=150000u
X9 VGND VPWR VGND VGND sky130_fd_pr__nfet_01v8 ad=0p pd=0u as=0p ps=0u w=550000u l=1.97e+06u
X10 a_14839_743# a_3340_7093# VGND VGND sky130_fd_pr__nfet_01v8 ad=1.755e+11p pd=1.84e+06u as=0p ps=0u w=650000u l=150000u
X11 VPWR VGND VPWR VPWR sky130_fd_pr__pfet_01v8_hvt ad=0p pd=0u as=0p ps=0u w=870000u l=1.05e+06u
X12 a_4779_1653# a_813_591# VPWR VPWR sky130_fd_pr__pfet_01v8_hvt ad=1.134e+11p pd=1.38e+06u as=0p ps=0u w=420000u l=150000u
X13 a_2255_11169# a_2191_10357# VPWR VPWR sky130_fd_pr__pfet_01v8_hvt ad=1.664e+11p pd=1.8e+06u as=0p ps=0u w=640000u l=150000u
X14 VGND a_7967_10535# a_7939_10383# VGND sky130_fd_pr__nfet_01v8 ad=0p pd=0u as=1.69e+11p ps=1.82e+06u w=650000u l=150000u
X15 a_6169_11471# a_4608_9929# a_5823_11721# VGND sky130_fd_pr__nfet_01v8 ad=2.275e+11p pd=2e+06u as=3.38e+11p ps=3.64e+06u w=650000u l=150000u
X16 VPWR a_4487_2919# a_6085_3855# VPWR sky130_fd_pr__pfet_01v8_hvt ad=0p pd=0u as=1.092e+11p ps=1.36e+06u w=420000u l=150000u
X17 a_9523_10525# a_7067_10907# VPWR VPWR sky130_fd_pr__pfet_01v8_hvt ad=1.664e+11p pd=1.8e+06u as=0p ps=0u w=640000u l=150000u
X18 ctln_9_ a_13643_591# VPWR VPWR sky130_fd_pr__pfet_01v8_hvt ad=2.7e+11p pd=2.54e+06u as=0p ps=0u w=1e+06u l=150000u
X19 a_9493_3631# a_8763_2919# VGND VGND sky130_fd_pr__nfet_01v8 ad=1.495e+11p pd=1.76e+06u as=0p ps=0u w=650000u l=150000u
X20 VGND VPWR VGND VGND sky130_fd_pr__nfet_01v8 ad=0p pd=0u as=0p ps=0u w=550000u l=590000u
X21 VPWR VGND VPWR VPWR sky130_fd_pr__pfet_01v8_hvt ad=0p pd=0u as=0p ps=0u w=870000u l=1.97e+06u
X22 VGND VPWR VGND VGND sky130_fd_pr__nfet_01v8 ad=0p pd=0u as=0p ps=0u w=550000u l=590000u
X23 a_13416_8983# a_13631_8764# a_13558_8790# VPWR sky130_fd_pr__pfet_01v8_hvt ad=3.864e+11p pd=2.68e+06u as=1.533e+11p ps=1.57e+06u w=420000u l=150000u
X24 VGND a_3639_6164# a_8767_7663# VGND sky130_fd_pr__nfet_01v8 ad=0p pd=0u as=1.113e+11p ps=1.37e+06u w=420000u l=150000u
X25 a_13703_4943# a_13257_4943# a_13607_4943# VGND sky130_fd_pr__nfet_01v8 ad=2.802e+11p pd=2.2e+06u as=1.188e+11p ps=1.38e+06u w=360000u l=150000u
X26 VPWR a_9811_4373# a_14839_10383# VPWR sky130_fd_pr__pfet_01v8_hvt ad=0p pd=0u as=1.664e+11p ps=1.8e+06u w=640000u l=150000u
X27 VGND a_9240_6807# a_10699_4405# VGND sky130_fd_pr__nfet_01v8 ad=0p pd=0u as=1.092e+11p ps=1.36e+06u w=420000u l=150000u
X28 a_8787_1377# a_9240_6807# VGND VGND sky130_fd_pr__nfet_01v8 ad=1.092e+11p pd=1.36e+06u as=0p ps=0u w=420000u l=150000u
X29 VGND a_5227_6183# a_1719_4917# VGND sky130_fd_pr__nfet_01v8 ad=0p pd=0u as=1.7875e+11p ps=1.85e+06u w=650000u l=150000u
X30 a_5905_11721# a_4608_9929# VPWR VPWR sky130_fd_pr__pfet_01v8_hvt ad=5.9e+11p pd=5.18e+06u as=0p ps=0u w=1e+06u l=150000u
X31 a_8105_7119# a_7939_7119# VPWR VPWR sky130_fd_pr__pfet_01v8_hvt ad=1.664e+11p pd=1.8e+06u as=0p ps=0u w=640000u l=150000u
X32 a_13715_3133# a_13091_2767# a_13607_2767# VPWR sky130_fd_pr__pfet_01v8_hvt ad=3.402e+11p pd=3.3e+06u as=1.449e+11p ps=1.53e+06u w=420000u l=150000u
X33 VGND VPWR VGND VGND sky130_fd_pr__nfet_01v8 ad=0p pd=0u as=0p ps=0u w=550000u l=1.05e+06u
X34 VGND a_4976_7119# a_5398_7663# VGND sky130_fd_pr__nfet_01v8 ad=0p pd=0u as=1.092e+11p ps=1.36e+06u w=420000u l=150000u
X35 a_1265_1679# a_1221_1921# a_1099_1679# VGND sky130_fd_pr__nfet_01v8 ad=8.82e+10p pd=1.26e+06u as=2.802e+11p ps=2.2e+06u w=420000u l=150000u
X36 VGND a_579_7663# a_1503_8207# VGND sky130_fd_pr__nfet_01v8 ad=0p pd=0u as=4.55e+11p ps=4e+06u w=650000u l=150000u
X37 a_2931_7637# a_3057_11471# a_3362_7983# VGND sky130_fd_pr__nfet_01v8 ad=1.95e+11p pd=1.9e+06u as=2.275e+11p ps=2e+06u w=650000u l=150000u
X38 a_9305_1679# a_8879_2006# VPWR VPWR sky130_fd_pr__pfet_01v8_hvt ad=2.6e+11p pd=2.52e+06u as=0p ps=0u w=1e+06u l=150000u
X39 a_13457_2197# a_13239_2601# VPWR VPWR sky130_fd_pr__pfet_01v8_hvt ad=2.583e+11p pd=2.37e+06u as=0p ps=0u w=840000u l=150000u
X40 VGND a_813_591# a_13869_4943# VGND sky130_fd_pr__nfet_01v8 ad=0p pd=0u as=8.82e+10p ps=1.26e+06u w=420000u l=150000u
X41 VPWR a_813_591# a_1360_10749# VPWR sky130_fd_pr__pfet_01v8_hvt ad=0p pd=0u as=3.402e+11p ps=3.3e+06u w=420000u l=150000u
X42 VGND a_12773_8970# a_11251_9447# VGND sky130_fd_pr__nfet_01v8 ad=0p pd=0u as=1.352e+11p ps=1.56e+06u w=520000u l=150000u
X43 a_7242_7271# a_9195_7093# VGND VGND sky130_fd_pr__nfet_01v8 ad=1.69e+11p pd=1.82e+06u as=0p ps=0u w=650000u l=150000u
X44 VGND VPWR VGND VGND sky130_fd_pr__nfet_01v8 ad=0p pd=0u as=0p ps=0u w=550000u l=1.97e+06u
X45 a_1184_5461# a_1363_5469# VGND VGND sky130_fd_pr__nfet_01v8 ad=1.092e+11p pd=1.36e+06u as=0p ps=0u w=420000u l=150000u
X46 a_9679_10620# a_9523_10525# a_9824_10749# VPWR sky130_fd_pr__pfet_01v8_hvt ad=1.449e+11p pd=1.53e+06u as=3.402e+11p ps=3.3e+06u w=420000u l=150000u
X47 a_3639_6164# a_7102_6575# VPWR VPWR sky130_fd_pr__pfet_01v8_hvt ad=2.24e+12p pd=2.048e+07u as=0p ps=0u w=1e+06u l=150000u
X48 a_4391_2919# a_11955_4703# VGND VGND sky130_fd_pr__nfet_01v8 ad=1.755e+11p pd=1.84e+06u as=0p ps=0u w=650000u l=150000u
X49 VGND a_13828_3285# a_14839_1143# VGND sky130_fd_pr__nfet_01v8 ad=0p pd=0u as=1.092e+11p ps=1.36e+06u w=420000u l=150000u
X50 VPWR a_10658_12711# a_10607_12559# VPWR sky130_fd_pr__pfet_01v8_hvt ad=0p pd=0u as=2.6e+11p ps=2.52e+06u w=1e+06u l=150000u
X51 a_13327_3285# a_10660_5719# a_13545_3311# VPWR sky130_fd_pr__pfet_01v8_hvt ad=7.4e+11p pd=5.48e+06u as=3.25e+11p ps=2.65e+06u w=1e+06u l=150000u
X52 a_10977_3631# a_8619_2741# a_10543_3543# VGND sky130_fd_pr__nfet_01v8 ad=1.495e+11p pd=1.76e+06u as=3.38e+11p ps=3.64e+06u w=650000u l=150000u
X53 a_4822_3901# a_4792_3875# VPWR VPWR sky130_fd_pr__pfet_01v8_hvt ad=1.176e+11p pd=1.4e+06u as=0p ps=0u w=420000u l=150000u
X54 VGND a_448_11989# result_7_ VGND sky130_fd_pr__nfet_01v8 ad=0p pd=0u as=1.755e+11p ps=1.84e+06u w=650000u l=150000u
X55 a_10770_6707# a_11048_6691# a_11004_6575# VPWR sky130_fd_pr__pfet_01v8_hvt ad=1.176e+11p pd=1.4e+06u as=1.134e+11p ps=1.38e+06u w=420000u l=150000u
X56 VGND a_11260_12711# a_11037_12533# VGND sky130_fd_pr__nfet_01v8 ad=0p pd=0u as=1.69e+11p ps=1.82e+06u w=650000u l=150000u
X57 a_7297_11471# a_5939_12692# a_6863_11623# VGND sky130_fd_pr__nfet_01v8 ad=1.495e+11p pd=1.76e+06u as=3.38e+11p ps=3.64e+06u w=650000u l=150000u
X58 a_10786_4105# a_8619_2741# VPWR VPWR sky130_fd_pr__pfet_01v8_hvt ad=5.35e+11p pd=5.07e+06u as=0p ps=0u w=1e+06u l=150000u
X59 a_1761_7119# a_1170_7119# VPWR VPWR sky130_fd_pr__pfet_01v8_hvt ad=2.6e+11p pd=2.52e+06u as=0p ps=0u w=1e+06u l=150000u
X60 a_5048_3855# a_4220_5719# VGND VGND sky130_fd_pr__nfet_01v8 ad=3.8675e+11p pd=3.79e+06u as=0p ps=0u w=650000u l=150000u
X61 a_2835_4020# a_2927_3829# VPWR VPWR sky130_fd_pr__pfet_01v8_hvt ad=2.054e+11p pd=2.1e+06u as=0p ps=0u w=790000u l=150000u
X62 VGND VPWR VGND VGND sky130_fd_pr__nfet_01v8 ad=0p pd=0u as=0p ps=0u w=550000u l=1.05e+06u
X63 ctlp_4_ a_4535_12023# VPWR VPWR sky130_fd_pr__pfet_01v8_hvt ad=2.7e+11p pd=2.54e+06u as=0p ps=0u w=1e+06u l=150000u
X64 a_2767_6575# a_2143_6581# a_2659_6953# VPWR sky130_fd_pr__pfet_01v8_hvt ad=3.402e+11p pd=3.3e+06u as=1.449e+11p ps=1.53e+06u w=420000u l=150000u
X65 a_1238_7663# a_1112_7779# a_834_7795# VGND sky130_fd_pr__nfet_01v8 ad=1.998e+11p pd=1.97e+06u as=1.422e+11p ps=1.51e+06u w=360000u l=150000u
X66 a_448_11989# a_627_11997# VGND VGND sky130_fd_pr__nfet_01v8 ad=1.092e+11p pd=1.36e+06u as=0p ps=0u w=420000u l=150000u
X67 VGND a_13420_7895# a_14653_9071# VGND sky130_fd_pr__nfet_01v8 ad=0p pd=0u as=3.445e+11p ps=3.66e+06u w=650000u l=150000u
X68 a_11889_4777# a_10699_4405# a_11780_4777# VGND sky130_fd_pr__nfet_01v8 ad=1.338e+11p pd=1.5e+06u as=1.422e+11p ps=1.51e+06u w=360000u l=150000u
X69 VPWR a_813_591# a_11388_6575# VPWR sky130_fd_pr__pfet_01v8_hvt ad=0p pd=0u as=3.402e+11p ps=3.3e+06u w=420000u l=150000u
X70 a_2111_2455# a_2221_1679# a_2285_2561# VGND sky130_fd_pr__nfet_01v8 ad=1.176e+11p pd=1.4e+06u as=1.134e+11p ps=1.38e+06u w=420000u l=150000u
X71 VGND a_3340_9269# a_4711_2223# VGND sky130_fd_pr__nfet_01v8 ad=0p pd=0u as=1.755e+11p ps=1.84e+06u w=650000u l=150000u
X72 VPWR a_813_591# a_1360_4221# VPWR sky130_fd_pr__pfet_01v8_hvt ad=0p pd=0u as=3.402e+11p ps=3.3e+06u w=420000u l=150000u
X73 VGND VPWR VGND VGND sky130_fd_pr__nfet_01v8 ad=0p pd=0u as=0p ps=0u w=550000u l=590000u
X74 VGND VPWR VGND VGND sky130_fd_pr__nfet_01v8 ad=0p pd=0u as=0p ps=0u w=550000u l=590000u
X75 a_2787_10633# a_1811_11445# a_2869_10383# VGND sky130_fd_pr__nfet_01v8 ad=3.38e+11p pd=3.64e+06u as=1.495e+11p ps=1.76e+06u w=650000u l=150000u
X76 a_6981_7093# a_1981_5088# VGND VGND sky130_fd_pr__nfet_01v8 ad=1.7875e+11p pd=1.85e+06u as=0p ps=0u w=650000u l=150000u
X77 VGND a_477_591# a_813_591# VGND sky130_fd_pr__nfet_01v8 ad=0p pd=0u as=1.053e+12p ps=1.104e+07u w=650000u l=150000u
X78 a_10663_4943# a_10147_4943# a_10568_4943# VGND sky130_fd_pr__nfet_01v8 ad=1.188e+11p pd=1.38e+06u as=1.32e+11p ps=1.49e+06u w=360000u l=150000u
X79 VPWR VGND VPWR VPWR sky130_fd_pr__pfet_01v8_hvt ad=0p pd=0u as=0p ps=0u w=870000u l=1.05e+06u
X80 a_8273_6183# a_8369_6005# VGND VGND sky130_fd_pr__nfet_01v8 ad=1.092e+11p pd=1.36e+06u as=0p ps=0u w=420000u l=150000u
X81 VPWR VGND VPWR VPWR sky130_fd_pr__pfet_01v8_hvt ad=0p pd=0u as=0p ps=0u w=870000u l=4.73e+06u
X82 VGND VPWR VGND VGND sky130_fd_pr__nfet_01v8 ad=0p pd=0u as=0p ps=0u w=550000u l=1.97e+06u
X83 VPWR a_8443_4399# a_9230_5309# VPWR sky130_fd_pr__pfet_01v8_hvt ad=0p pd=0u as=1.302e+11p ps=1.46e+06u w=420000u l=150000u
X84 VPWR a_4601_1109# a_5744_565# VPWR sky130_fd_pr__pfet_01v8_hvt ad=0p pd=0u as=2.7e+11p ps=2.54e+06u w=1e+06u l=150000u
X85 VGND a_9240_6807# a_13091_4943# VGND sky130_fd_pr__nfet_01v8 ad=0p pd=0u as=1.092e+11p ps=1.36e+06u w=420000u l=150000u
X86 VPWR a_6808_11989# a_6746_12015# VPWR sky130_fd_pr__pfet_01v8_hvt ad=0p pd=0u as=1.302e+11p ps=1.46e+06u w=420000u l=150000u
X87 a_4792_3875# a_5727_7485# VPWR VPWR sky130_fd_pr__pfet_01v8_hvt ad=2.6e+11p pd=2.52e+06u as=0p ps=0u w=1e+06u l=150000u
X88 VPWR a_8215_1135# a_11742_4105# VPWR sky130_fd_pr__pfet_01v8_hvt ad=0p pd=0u as=8.82e+10p ps=1.26e+06u w=420000u l=150000u
X89 a_13715_5309# a_13091_4943# a_13607_4943# VPWR sky130_fd_pr__pfet_01v8_hvt ad=3.402e+11p pd=3.3e+06u as=1.449e+11p ps=1.53e+06u w=420000u l=150000u
X90 a_10935_10901# a_11138_11059# VPWR VPWR sky130_fd_pr__pfet_01v8_hvt ad=1.134e+11p pd=1.38e+06u as=0p ps=0u w=420000u l=150000u
X91 a_10459_6005# a_9823_7895# VPWR VPWR sky130_fd_pr__pfet_01v8_hvt ad=2.7e+11p pd=2.54e+06u as=0p ps=0u w=1e+06u l=150000u
X92 a_6654_10927# a_5935_11169# a_6091_10901# VGND sky130_fd_pr__nfet_01v8 ad=1.32e+11p pd=1.49e+06u as=1.188e+11p ps=1.38e+06u w=360000u l=150000u
X93 VGND a_4048_3829# a_5717_4399# VGND sky130_fd_pr__nfet_01v8 ad=0p pd=0u as=1.092e+11p ps=1.36e+06u w=420000u l=150000u
X94 a_6729_7895# a_4735_6575# a_6892_7779# VPWR sky130_fd_pr__pfet_01v8_hvt ad=1.092e+11p pd=1.36e+06u as=8.82e+10p ps=1.26e+06u w=420000u l=150000u
X95 VPWR a_2877_6549# a_2767_6575# VPWR sky130_fd_pr__pfet_01v8_hvt ad=0p pd=0u as=0p ps=0u w=420000u l=150000u
X96 VGND a_10568_565# ctln_7_ VGND sky130_fd_pr__nfet_01v8 ad=0p pd=0u as=1.755e+11p ps=1.84e+06u w=650000u l=150000u
X97 VPWR a_6964_8359# a_13214_11721# VPWR sky130_fd_pr__pfet_01v8_hvt ad=0p pd=0u as=8.82e+10p ps=1.26e+06u w=420000u l=150000u
X98 VGND a_3887_8977# a_4061_7895# VGND sky130_fd_pr__nfet_01v8 ad=0p pd=0u as=1.134e+11p ps=1.38e+06u w=420000u l=150000u
X99 VGND a_5257_1679# a_5766_1679# VGND sky130_fd_pr__nfet_01v8 ad=0p pd=0u as=1.092e+11p ps=1.36e+06u w=420000u l=150000u
X100 a_777_6031# a_742_6283# a_539_6005# VGND sky130_fd_pr__nfet_01v8 ad=1.281e+11p pd=1.45e+06u as=1.092e+11p ps=1.36e+06u w=420000u l=150000u
X101 VPWR a_477_591# a_813_591# VPWR sky130_fd_pr__pfet_01v8_hvt ad=0p pd=0u as=1.62e+12p ps=1.524e+07u w=1e+06u l=150000u
X102 VPWR a_5521_565# a_5455_591# VPWR sky130_fd_pr__pfet_01v8_hvt ad=0p pd=0u as=3.3e+11p ps=2.66e+06u w=1e+06u l=150000u
X103 VPWR a_9240_6807# a_12723_2229# VPWR sky130_fd_pr__pfet_01v8_hvt ad=0p pd=0u as=1.664e+11p ps=1.8e+06u w=640000u l=150000u
X104 VGND a_13643_591# ctln_9_ VGND sky130_fd_pr__nfet_01v8 ad=0p pd=0u as=1.755e+11p ps=1.84e+06u w=650000u l=150000u
X105 VPWR VGND VPWR VPWR sky130_fd_pr__pfet_01v8_hvt ad=0p pd=0u as=0p ps=0u w=870000u l=590000u
X106 VGND VPWR VGND VGND sky130_fd_pr__nfet_01v8 ad=0p pd=0u as=0p ps=0u w=550000u l=1.05e+06u
X107 a_2974_10927# a_2216_11043# a_2411_10901# VPWR sky130_fd_pr__pfet_01v8_hvt ad=1.302e+11p pd=1.46e+06u as=1.449e+11p ps=1.53e+06u w=420000u l=150000u
X108 a_1617_8029# a_1238_7663# a_1545_8029# VGND sky130_fd_pr__nfet_01v8 ad=2.802e+11p pd=2.2e+06u as=8.82e+10p ps=1.26e+06u w=420000u l=150000u
X109 VGND VPWR VGND VGND sky130_fd_pr__nfet_01v8 ad=0p pd=0u as=0p ps=0u w=550000u l=1.05e+06u
X110 a_6065_8983# a_6161_8725# VGND VGND sky130_fd_pr__nfet_01v8 ad=1.092e+11p pd=1.36e+06u as=0p ps=0u w=420000u l=150000u
X111 a_13257_8207# a_13091_8207# VGND VGND sky130_fd_pr__nfet_01v8 ad=1.092e+11p pd=1.36e+06u as=0p ps=0u w=420000u l=150000u
X112 a_10753_1109# a_11771_2527# VGND VGND sky130_fd_pr__nfet_01v8 ad=1.69e+11p pd=1.82e+06u as=0p ps=0u w=650000u l=150000u
X113 VPWR a_4043_8181# a_4030_8573# VPWR sky130_fd_pr__pfet_01v8_hvt ad=0p pd=0u as=1.134e+11p ps=1.38e+06u w=420000u l=150000u
X114 VPWR a_7102_6575# a_3639_6164# VPWR sky130_fd_pr__pfet_01v8_hvt ad=0p pd=0u as=0p ps=0u w=1e+06u l=150000u
X115 a_3513_6031# a_3483_6005# VGND VGND sky130_fd_pr__nfet_01v8 ad=1.134e+11p pd=1.38e+06u as=0p ps=0u w=420000u l=150000u
X116 VPWR VGND VPWR VPWR sky130_fd_pr__pfet_01v8_hvt ad=0p pd=0u as=0p ps=0u w=870000u l=1.05e+06u
X117 VGND a_11851_8983# a_11803_8751# VGND sky130_fd_pr__nfet_01v8 ad=0p pd=0u as=1.69e+11p ps=1.82e+06u w=650000u l=150000u
X118 a_8945_7663# a_8767_7663# VGND VGND sky130_fd_pr__nfet_01v8 ad=1.134e+11p pd=1.38e+06u as=0p ps=0u w=420000u l=150000u
X119 a_6200_5719# a_3003_5095# VGND VGND sky130_fd_pr__nfet_01v8 ad=1.092e+11p pd=1.36e+06u as=0p ps=0u w=420000u l=150000u
X120 a_6746_12015# a_6027_12257# a_6183_11989# VGND sky130_fd_pr__nfet_01v8 ad=1.32e+11p pd=1.49e+06u as=1.188e+11p ps=1.38e+06u w=360000u l=150000u
X121 a_2931_7637# a_3057_11471# VPWR VPWR sky130_fd_pr__pfet_01v8_hvt ad=7.4e+11p pd=5.48e+06u as=0p ps=0u w=1e+06u l=150000u
X122 a_5253_3133# a_5257_1679# VPWR VPWR sky130_fd_pr__pfet_01v8_hvt ad=3.297e+11p pd=3.25e+06u as=0p ps=0u w=420000u l=150000u
X123 VGND VPWR VGND VGND sky130_fd_pr__nfet_01v8 ad=0p pd=0u as=0p ps=0u w=550000u l=1.05e+06u
X124 VPWR a_2957_4399# a_4018_4399# VPWR sky130_fd_pr__pfet_01v8_hvt ad=0p pd=0u as=1.092e+11p ps=1.36e+06u w=420000u l=150000u
X125 VGND a_1215_10620# a_1146_10749# VGND sky130_fd_pr__nfet_01v8 ad=0p pd=0u as=1.998e+11p ps=1.97e+06u w=640000u l=150000u
X126 VPWR a_2073_11616# a_3697_8751# VPWR sky130_fd_pr__pfet_01v8_hvt ad=0p pd=0u as=5.9e+11p ps=5.18e+06u w=1e+06u l=150000u
X127 VPWR a_11211_10357# a_11159_10383# VPWR sky130_fd_pr__pfet_01v8_hvt ad=0p pd=0u as=2.6e+11p ps=2.52e+06u w=1e+06u l=150000u
X128 VGND VPWR VGND VGND sky130_fd_pr__nfet_01v8 ad=0p pd=0u as=0p ps=0u w=550000u l=1.05e+06u
X129 VPWR a_1215_6268# a_1146_6397# VPWR sky130_fd_pr__pfet_01v8_hvt ad=0p pd=0u as=2.583e+11p ps=2.37e+06u w=840000u l=150000u
X130 VPWR VGND VPWR VPWR sky130_fd_pr__pfet_01v8_hvt ad=0p pd=0u as=0p ps=0u w=870000u l=1.05e+06u
X131 VGND a_2957_4399# a_4018_4399# VGND sky130_fd_pr__nfet_01v8 ad=0p pd=0u as=1.092e+11p ps=1.36e+06u w=420000u l=150000u
X132 a_6097_1109# a_5879_1513# VPWR VPWR sky130_fd_pr__pfet_01v8_hvt ad=2.583e+11p pd=2.37e+06u as=0p ps=0u w=840000u l=150000u
X133 a_7343_11445# a_9195_11445# VPWR VPWR sky130_fd_pr__pfet_01v8_hvt ad=2.6e+11p pd=2.52e+06u as=0p ps=0u w=1e+06u l=150000u
X134 VPWR VGND VPWR VPWR sky130_fd_pr__pfet_01v8_hvt ad=0p pd=0u as=0p ps=0u w=870000u l=2.89e+06u
X135 VPWR a_482_1831# a_1775_1141# VPWR sky130_fd_pr__pfet_01v8_hvt ad=0p pd=0u as=1.664e+11p ps=1.8e+06u w=640000u l=150000u
X136 a_11780_4777# a_10699_4405# a_11433_4373# VPWR sky130_fd_pr__pfet_01v8_hvt ad=1.176e+11p pd=1.4e+06u as=2.583e+11p ps=2.37e+06u w=420000u l=150000u
X137 VGND a_1840_4104# a_1778_4221# VGND sky130_fd_pr__nfet_01v8 ad=0p pd=0u as=1.32e+11p ps=1.49e+06u w=420000u l=150000u
X138 a_8211_12711# a_9287_11231# VGND VGND sky130_fd_pr__nfet_01v8 ad=1.69e+11p pd=1.82e+06u as=0p ps=0u w=650000u l=150000u
X139 a_5547_7485# a_3887_8977# VGND VGND sky130_fd_pr__nfet_01v8 ad=1.092e+11p pd=1.36e+06u as=0p ps=0u w=420000u l=150000u
X140 VGND VPWR VGND VGND sky130_fd_pr__nfet_01v8 ad=0p pd=0u as=0p ps=0u w=550000u l=590000u
X141 VPWR a_11455_11169# a_11416_11043# VPWR sky130_fd_pr__pfet_01v8_hvt ad=0p pd=0u as=1.664e+11p ps=1.8e+06u w=640000u l=150000u
X142 VPWR a_8945_7663# a_9871_9295# VPWR sky130_fd_pr__pfet_01v8_hvt ad=0p pd=0u as=2.65e+11p ps=2.53e+06u w=1e+06u l=150000u
X143 VPWR a_10584_2767# a_10759_2741# VPWR sky130_fd_pr__pfet_01v8_hvt ad=0p pd=0u as=1.134e+11p ps=1.38e+06u w=420000u l=150000u
X144 a_3391_5461# a_3513_6031# VGND VGND sky130_fd_pr__nfet_01v8 ad=1.113e+11p pd=1.37e+06u as=0p ps=0u w=420000u l=150000u
X145 a_627_8733# a_4043_8181# VPWR VPWR sky130_fd_pr__pfet_01v8_hvt ad=2.6e+11p pd=2.52e+06u as=0p ps=0u w=1e+06u l=150000u
X146 VGND a_4487_2919# a_6167_6895# VGND sky130_fd_pr__nfet_01v8 ad=0p pd=0u as=2.08e+11p ps=1.94e+06u w=650000u l=150000u
X147 VGND VPWR VGND VGND sky130_fd_pr__nfet_01v8 ad=0p pd=0u as=0p ps=0u w=550000u l=1.97e+06u
X148 VGND a_13698_6183# a_14641_4007# VGND sky130_fd_pr__nfet_01v8 ad=0p pd=0u as=1.134e+11p ps=1.38e+06u w=420000u l=150000u
X149 a_13511_3829# a_10660_5719# a_13729_4105# VPWR sky130_fd_pr__pfet_01v8_hvt ad=7.4e+11p pd=5.48e+06u as=3.25e+11p ps=2.65e+06u w=1e+06u l=150000u
X150 ctlp_2_ a_2787_12559# VGND VGND sky130_fd_pr__nfet_01v8 ad=1.755e+11p pd=1.84e+06u as=0p ps=0u w=650000u l=150000u
X151 a_11311_4777# a_10865_4405# a_11215_4777# VGND sky130_fd_pr__nfet_01v8 ad=2.802e+11p pd=2.2e+06u as=1.188e+11p ps=1.38e+06u w=360000u l=150000u
X152 VPWR VGND VPWR VPWR sky130_fd_pr__pfet_01v8_hvt ad=0p pd=0u as=0p ps=0u w=870000u l=1.05e+06u
X153 VGND a_4779_1653# a_4713_1679# VGND sky130_fd_pr__nfet_01v8 ad=0p pd=0u as=1.338e+11p ps=1.5e+06u w=420000u l=150000u
X154 VPWR VGND VPWR VPWR sky130_fd_pr__pfet_01v8_hvt ad=0p pd=0u as=0p ps=0u w=870000u l=1.97e+06u
X155 VGND VPWR VGND VGND sky130_fd_pr__nfet_01v8 ad=0p pd=0u as=0p ps=0u w=550000u l=1.97e+06u
X156 a_10313_4943# a_10147_4943# VPWR VPWR sky130_fd_pr__pfet_01v8_hvt ad=1.664e+11p pd=1.8e+06u as=0p ps=0u w=640000u l=150000u
X157 VGND a_8259_3285# a_8205_3631# VGND sky130_fd_pr__nfet_01v8 ad=0p pd=0u as=1.755e+11p ps=1.84e+06u w=650000u l=150000u
X158 VGND a_1868_8181# a_2787_12559# VGND sky130_fd_pr__nfet_01v8 ad=0p pd=0u as=1.092e+11p ps=1.36e+06u w=420000u l=150000u
X159 VGND VPWR VGND VGND sky130_fd_pr__nfet_01v8 ad=0p pd=0u as=0p ps=0u w=550000u l=2.89e+06u
X160 VPWR VGND VPWR VPWR sky130_fd_pr__pfet_01v8_hvt ad=0p pd=0u as=0p ps=0u w=870000u l=1.05e+06u
X161 VGND VPWR VGND VGND sky130_fd_pr__nfet_01v8 ad=0p pd=0u as=0p ps=0u w=550000u l=590000u
X162 VGND a_5396_6417# a_8084_5461# VGND sky130_fd_pr__nfet_01v8 ad=0p pd=0u as=3.5425e+11p ps=3.69e+06u w=650000u l=150000u
X163 trim_1_ a_14839_6031# VPWR VPWR sky130_fd_pr__pfet_01v8_hvt ad=2.7e+11p pd=2.54e+06u as=0p ps=0u w=1e+06u l=150000u
X164 VPWR a_3107_2741# a_2219_2455# VPWR sky130_fd_pr__pfet_01v8_hvt ad=0p pd=0u as=2.7e+11p ps=2.54e+06u w=1e+06u l=150000u
X165 a_3862_4105# a_4048_3829# a_4006_3855# VGND sky130_fd_pr__nfet_01v8 ad=3.9325e+11p pd=2.51e+06u as=1.365e+11p ps=1.72e+06u w=650000u l=150000u
X166 VPWR a_813_591# a_6328_12015# VPWR sky130_fd_pr__pfet_01v8_hvt ad=0p pd=0u as=3.402e+11p ps=3.3e+06u w=420000u l=150000u
X167 VGND a_448_11445# result_6_ VGND sky130_fd_pr__nfet_01v8 ad=0p pd=0u as=1.755e+11p ps=1.84e+06u w=650000u l=150000u
X168 VGND a_13605_7093# a_11748_7271# VGND sky130_fd_pr__nfet_01v8 ad=0p pd=0u as=1.69e+11p ps=1.82e+06u w=650000u l=150000u
X169 VGND a_4931_10535# a_4903_10383# VGND sky130_fd_pr__nfet_01v8 ad=0p pd=0u as=1.69e+11p ps=1.82e+06u w=650000u l=150000u
X170 result_9_ a_1184_5461# VPWR VPWR sky130_fd_pr__pfet_01v8_hvt ad=2.7e+11p pd=2.54e+06u as=0p ps=0u w=1e+06u l=150000u
X171 a_6559_2767# a_4487_2919# a_6465_2767# VGND sky130_fd_pr__nfet_01v8 ad=2.145e+11p pd=1.96e+06u as=2.08e+11p ps=1.94e+06u w=650000u l=150000u
X172 VGND a_14641_4007# a_12355_5095# VGND sky130_fd_pr__nfet_01v8 ad=0p pd=0u as=1.69e+11p ps=1.82e+06u w=650000u l=150000u
X173 VPWR a_3111_4917# a_3762_4917# VPWR sky130_fd_pr__pfet_01v8_hvt ad=0p pd=0u as=2.478e+11p ps=2.86e+06u w=420000u l=150000u
X174 a_3639_6164# a_7102_6575# VGND VGND sky130_fd_pr__nfet_01v8 ad=9.408e+11p pd=1.12e+07u as=0p ps=0u w=420000u l=150000u
X175 VGND a_3615_11471# a_4353_11247# VGND sky130_fd_pr__nfet_01v8 ad=0p pd=0u as=1.495e+11p ps=1.76e+06u w=650000u l=150000u
X176 trimb_1_ a_14839_9847# VPWR VPWR sky130_fd_pr__pfet_01v8_hvt ad=2.7e+11p pd=2.54e+06u as=0p ps=0u w=1e+06u l=150000u
X177 a_10129_8207# a_9963_8207# VPWR VPWR sky130_fd_pr__pfet_01v8_hvt ad=1.664e+11p pd=1.8e+06u as=0p ps=0u w=640000u l=150000u
X178 a_1677_1679# a_487_1679# a_1568_1679# VGND sky130_fd_pr__nfet_01v8 ad=1.338e+11p pd=1.5e+06u as=1.422e+11p ps=1.51e+06u w=360000u l=150000u
X179 a_11237_12015# a_10646_12015# VPWR VPWR sky130_fd_pr__pfet_01v8_hvt ad=2.6e+11p pd=2.52e+06u as=0p ps=0u w=1e+06u l=150000u
X180 VPWR VGND VPWR VPWR sky130_fd_pr__pfet_01v8_hvt ad=0p pd=0u as=0p ps=0u w=870000u l=1.05e+06u
X181 VPWR a_6979_9813# a_627_10909# VPWR sky130_fd_pr__pfet_01v8_hvt ad=0p pd=0u as=2.6e+11p ps=2.52e+06u w=1e+06u l=150000u
X182 VGND a_7881_2223# a_8618_2223# VGND sky130_fd_pr__nfet_01v8 ad=0p pd=0u as=1.092e+11p ps=1.36e+06u w=420000u l=150000u
X183 a_2213_11293# a_1735_10901# VGND VGND sky130_fd_pr__nfet_01v8 ad=1.338e+11p pd=1.5e+06u as=0p ps=0u w=420000u l=150000u
X184 VPWR VGND VPWR VPWR sky130_fd_pr__pfet_01v8_hvt ad=0p pd=0u as=0p ps=0u w=870000u l=2.89e+06u
X185 a_7992_565# a_8171_565# VPWR VPWR sky130_fd_pr__pfet_01v8_hvt ad=1.664e+11p pd=1.8e+06u as=0p ps=0u w=640000u l=150000u
X186 VGND a_10941_12711# a_10754_12533# VGND sky130_fd_pr__nfet_01v8 ad=0p pd=0u as=1.69e+11p ps=1.82e+06u w=650000u l=150000u
X187 a_8084_5461# a_4792_3875# VGND VGND sky130_fd_pr__nfet_01v8 ad=0p pd=0u as=0p ps=0u w=650000u l=150000u
X188 VPWR VGND VPWR VPWR sky130_fd_pr__pfet_01v8_hvt ad=0p pd=0u as=0p ps=0u w=870000u l=1.05e+06u
X189 VGND a_1840_10632# a_1778_10749# VGND sky130_fd_pr__nfet_01v8 ad=0p pd=0u as=1.32e+11p ps=1.49e+06u w=420000u l=150000u
X190 VGND a_5047_10357# a_6169_11471# VGND sky130_fd_pr__nfet_01v8 ad=0p pd=0u as=0p ps=0u w=650000u l=150000u
X191 a_12194_1831# a_13979_2527# VPWR VPWR sky130_fd_pr__pfet_01v8_hvt ad=2.6e+11p pd=2.52e+06u as=0p ps=0u w=1e+06u l=150000u
X192 VPWR a_10869_6031# a_11806_6575# VPWR sky130_fd_pr__pfet_01v8_hvt ad=0p pd=0u as=1.302e+11p ps=1.46e+06u w=420000u l=150000u
X193 VPWR a_2921_11619# a_2879_11471# VPWR sky130_fd_pr__pfet_01v8_hvt ad=0p pd=0u as=2.65e+11p ps=2.53e+06u w=1e+06u l=150000u
X194 a_6331_6183# a_487_3855# a_6571_6031# VGND sky130_fd_pr__nfet_01v8 ad=3.8025e+11p pd=3.77e+06u as=3.38e+11p ps=2.34e+06u w=650000u l=150000u
X195 VGND VPWR VGND VGND sky130_fd_pr__nfet_01v8 ad=0p pd=0u as=0p ps=0u w=550000u l=1.05e+06u
X196 VPWR VGND VPWR VPWR sky130_fd_pr__pfet_01v8_hvt ad=0p pd=0u as=0p ps=0u w=870000u l=2.89e+06u
X197 VGND a_7939_3855# a_8483_3855# VGND sky130_fd_pr__nfet_01v8 ad=0p pd=0u as=1.82e+11p ps=1.86e+06u w=650000u l=150000u
X198 a_1778_10749# a_1059_10525# a_1215_10620# VGND sky130_fd_pr__nfet_01v8 ad=0p pd=0u as=1.188e+11p ps=1.38e+06u w=360000u l=150000u
X199 a_11429_10633# a_627_11997# VPWR VPWR sky130_fd_pr__pfet_01v8_hvt ad=3.25e+11p pd=2.65e+06u as=0p ps=0u w=1e+06u l=150000u
X200 VGND a_9195_7093# a_9129_7119# VGND sky130_fd_pr__nfet_01v8 ad=0p pd=0u as=1.338e+11p ps=1.5e+06u w=420000u l=150000u
X201 a_4443_3424# a_3883_3311# VPWR VPWR sky130_fd_pr__pfet_01v8_hvt ad=2.415e+11p pd=2.83e+06u as=0p ps=0u w=420000u l=150000u
X202 a_13420_7895# a_14666_8207# VPWR VPWR sky130_fd_pr__pfet_01v8_hvt ad=2.6e+11p pd=2.52e+06u as=0p ps=0u w=1e+06u l=150000u
X203 VGND a_813_591# a_3905_11471# VGND sky130_fd_pr__nfet_01v8 ad=0p pd=0u as=1.281e+11p ps=1.45e+06u w=420000u l=150000u
X204 VGND a_5894_4399# a_6000_4399# VGND sky130_fd_pr__nfet_01v8 ad=0p pd=0u as=1.092e+11p ps=1.36e+06u w=420000u l=150000u
X205 VGND VPWR VGND VGND sky130_fd_pr__nfet_01v8 ad=0p pd=0u as=0p ps=0u w=550000u l=1.05e+06u
X206 VGND a_8084_5461# a_4220_5719# VGND sky130_fd_pr__nfet_01v8 ad=0p pd=0u as=1.7225e+11p ps=1.83e+06u w=650000u l=150000u
X207 a_742_6283# a_1020_6299# a_976_6397# VPWR sky130_fd_pr__pfet_01v8_hvt ad=1.176e+11p pd=1.4e+06u as=1.134e+11p ps=1.38e+06u w=420000u l=150000u
X208 VGND a_1215_6268# a_1146_6397# VGND sky130_fd_pr__nfet_01v8 ad=0p pd=0u as=1.998e+11p ps=1.97e+06u w=640000u l=150000u
X209 VPWR VGND VPWR VPWR sky130_fd_pr__pfet_01v8_hvt ad=0p pd=0u as=0p ps=0u w=870000u l=590000u
X210 VPWR VGND VPWR VPWR sky130_fd_pr__pfet_01v8_hvt ad=0p pd=0u as=0p ps=0u w=870000u l=1.05e+06u
X211 a_4958_1679# a_813_591# VGND VGND sky130_fd_pr__nfet_01v8 ad=1.281e+11p pd=1.45e+06u as=0p ps=0u w=420000u l=150000u
X212 a_6612_2197# a_6997_2197# a_6741_2223# VPWR sky130_fd_pr__pfet_01v8_hvt ad=3.2e+11p pd=2.64e+06u as=6.5e+11p ps=5.3e+06u w=1e+06u l=150000u
X213 a_2277_3677# a_2233_3285# a_2111_3689# VGND sky130_fd_pr__nfet_01v8 ad=8.82e+10p pd=1.26e+06u as=2.802e+11p ps=2.2e+06u w=420000u l=150000u
X214 VGND a_9240_6807# a_12999_4405# VGND sky130_fd_pr__nfet_01v8 ad=0p pd=0u as=1.092e+11p ps=1.36e+06u w=420000u l=150000u
X215 VGND VPWR VGND VGND sky130_fd_pr__nfet_01v8 ad=0p pd=0u as=0p ps=0u w=550000u l=590000u
X216 VPWR VGND VPWR VPWR sky130_fd_pr__pfet_01v8_hvt ad=0p pd=0u as=0p ps=0u w=870000u l=2.89e+06u
X217 a_13558_9117# a_6721_2741# VGND VGND sky130_fd_pr__nfet_01v8 ad=1.386e+11p pd=1.5e+06u as=0p ps=0u w=420000u l=150000u
X218 a_2556_10927# a_2342_10927# VPWR VPWR sky130_fd_pr__pfet_01v8_hvt ad=3.402e+11p pd=3.3e+06u as=0p ps=0u w=420000u l=150000u
X219 a_6892_7779# a_4713_7271# VPWR VPWR sky130_fd_pr__pfet_01v8_hvt ad=0p pd=0u as=0p ps=0u w=420000u l=150000u
X220 a_13942_6031# a_6546_3311# a_13647_6031# VGND sky130_fd_pr__nfet_01v8 ad=2.275e+11p pd=2e+06u as=4.55e+11p ps=4e+06u w=650000u l=150000u
X221 a_7060_12809# a_627_11445# VGND VGND sky130_fd_pr__nfet_01v8 ad=1.134e+11p pd=1.38e+06u as=0p ps=0u w=420000u l=150000u
X222 a_12439_11989# a_12283_12257# a_12584_12015# VPWR sky130_fd_pr__pfet_01v8_hvt ad=1.449e+11p pd=1.53e+06u as=3.402e+11p ps=3.3e+06u w=420000u l=150000u
X223 a_1683_11721# a_1811_11445# a_1765_11471# VGND sky130_fd_pr__nfet_01v8 ad=3.38e+11p pd=3.64e+06u as=1.495e+11p ps=1.76e+06u w=650000u l=150000u
X224 VPWR VGND VPWR VPWR sky130_fd_pr__pfet_01v8_hvt ad=0p pd=0u as=0p ps=0u w=870000u l=1.05e+06u
X225 VPWR VGND VPWR VPWR sky130_fd_pr__pfet_01v8_hvt ad=0p pd=0u as=0p ps=0u w=870000u l=1.97e+06u
X226 a_5648_8359# a_5744_8181# VGND VGND sky130_fd_pr__nfet_01v8 ad=1.092e+11p pd=1.36e+06u as=0p ps=0u w=420000u l=150000u
X227 VPWR VGND VPWR VPWR sky130_fd_pr__pfet_01v8_hvt ad=0p pd=0u as=0p ps=0u w=870000u l=2.89e+06u
X228 a_11487_7093# a_11748_7271# a_11706_7119# VGND sky130_fd_pr__nfet_01v8 ad=1.755e+11p pd=1.84e+06u as=1.82e+11p ps=1.86e+06u w=650000u l=150000u
X229 VPWR VGND VPWR VPWR sky130_fd_pr__pfet_01v8_hvt ad=0p pd=0u as=0p ps=0u w=870000u l=1.05e+06u
X230 a_8194_5195# a_8511_5085# a_8469_4943# VGND sky130_fd_pr__nfet_01v8 ad=1.422e+11p pd=1.51e+06u as=1.338e+11p ps=1.5e+06u w=360000u l=150000u
X231 VGND a_5415_10901# a_4608_9929# VGND sky130_fd_pr__nfet_01v8 ad=0p pd=0u as=1.69e+11p ps=1.82e+06u w=650000u l=150000u
X232 VGND a_6844_9447# a_5939_12692# VGND sky130_fd_pr__nfet_01v8 ad=0p pd=0u as=1.69e+11p ps=1.82e+06u w=650000u l=150000u
X233 a_9679_10620# a_9484_10651# a_9989_10383# VGND sky130_fd_pr__nfet_01v8 ad=1.188e+11p pd=1.38e+06u as=2.802e+11p ps=2.2e+06u w=360000u l=150000u
X234 a_3944_1679# a_3785_2767# VPWR VPWR sky130_fd_pr__pfet_01v8_hvt ad=1.302e+11p pd=1.46e+06u as=0p ps=0u w=420000u l=150000u
X235 a_9887_12559# a_9636_12809# VPWR VPWR sky130_fd_pr__pfet_01v8_hvt ad=3.4e+11p pd=2.68e+06u as=0p ps=0u w=1e+06u l=150000u
X236 a_3208_8207# a_2879_7663# VGND VGND sky130_fd_pr__nfet_01v8 ad=1.32e+11p pd=1.49e+06u as=0p ps=0u w=420000u l=150000u
X237 a_7991_9269# a_8274_9269# a_8209_9545# VPWR sky130_fd_pr__pfet_01v8_hvt ad=7.4e+11p pd=5.48e+06u as=3.25e+11p ps=2.65e+06u w=1e+06u l=150000u