* pex extracted netlist. Can only be used on single 
* supply domain where avdd and avss are inputs

.subckt sar avdd dvdd dvss result9 result8 result7 result6 result5 result4 result3
+ result2 result1 result0 vinn avss clk vinp en valid cal rstn

Rvdd avdd vdd 0.01
Rvss avss vss 0.01
Cdeca dvdd vdd 1f
Cdecb dvss vss 1f

X0 vss vdd vss vss sky130_fd_pr__nfet_01v8 ad=2.43729e+14p pd=2.52528e+09u as=0p ps=0u w=550000u l=1.97e+06u
X1 a_10188_15910# clk vdd vdd sky130_fd_pr__pfet_01v8_hvt ad=5.6e+11p pd=5.12e+06u as=3.39589e+14p ps=3.29177e+09u w=1e+06u l=150000u
X2 a_17275_14112# a_16085_13740# a_17166_14112# vss sky130_fd_pr__nfet_01v8 ad=1.338e+11p pd=1.5e+06u as=1.422e+11p ps=1.51e+06u w=360000u l=150000u
X3 vss vdd vss vss sky130_fd_pr__nfet_01v8 ad=0p pd=0u as=0p ps=0u w=550000u l=590000u
X4 a_11237_21350# a_11060_21350# vss vss sky130_fd_pr__nfet_01v8 ad=1.69e+11p pd=1.82e+06u as=0p ps=0u w=650000u l=150000u
X5 a_23986_20196# trimb0 vss vss sky130_fd_pr__nfet_01v8_lvt ad=2.9e+11p pd=2.58e+06u as=0p ps=0u w=1e+06u l=300000u
X6 a_10092_17542# a_5067_14423# a_9923_17792# vdd sky130_fd_pr__pfet_01v8_hvt ad=2.6e+11p pd=2.52e+06u as=5.4e+11p ps=5.08e+06u w=1e+06u l=150000u
X7 vdd vss vdd vdd sky130_fd_pr__pfet_01v8_hvt ad=0p pd=0u as=0p ps=0u w=870000u l=590000u
X8 vdd a_12031_16998# a_12957_18630# vdd sky130_fd_pr__pfet_01v8_hvt ad=0p pd=0u as=2.65e+11p ps=2.53e+06u w=1e+06u l=150000u
X9 a_11186_18464# a_10271_18092# a_10839_18060# vss sky130_fd_pr__nfet_01v8 ad=1.422e+11p pd=1.51e+06u as=1.998e+11p ps=1.97e+06u w=360000u l=150000u
X10 a_14323_21350# a_13732_21350# vdd vdd sky130_fd_pr__pfet_01v8_hvt ad=2.6e+11p pd=2.52e+06u as=0p ps=0u w=1e+06u l=150000u
X11 vdd a_13741_18795# a_13366_17696# vdd sky130_fd_pr__pfet_01v8_hvt ad=0p pd=0u as=2.054e+11p ps=2.1e+06u w=790000u l=150000u
X12 vdd a_3707_17690# a_3665_17542# vdd sky130_fd_pr__pfet_01v8_hvt ad=0p pd=0u as=2.65e+11p ps=2.53e+06u w=1e+06u l=150000u
X13 a_9463_12966# a_9513_15518# a_9632_12646# vss sky130_fd_pr__nfet_01v8 ad=7.085e+11p pd=7.38e+06u as=1.82e+11p ps=1.86e+06u w=650000u l=150000u
X14 a_15220_14100# a_3899_9926# vss vss sky130_fd_pr__nfet_01v8 ad=1.281e+11p pd=1.45e+06u as=0p ps=0u w=420000u l=150000u
X15 a_17697_18318# a_16506_17230# vdd vdd sky130_fd_pr__pfet_01v8_hvt ad=2.7e+11p pd=2.54e+06u as=0p ps=0u w=1e+06u l=150000u
X16 vss vdd vss vss sky130_fd_pr__nfet_01v8 ad=0p pd=0u as=0p ps=0u w=550000u l=1.05e+06u
X17 vss a_12031_16998# a_12957_18630# vss sky130_fd_pr__nfet_01v8 ad=0p pd=0u as=1.113e+11p ps=1.37e+06u w=420000u l=150000u
X18 vdd vss vdd vdd sky130_fd_pr__pfet_01v8_hvt ad=0p pd=0u as=0p ps=0u w=870000u l=2.89e+06u
X19 ctl1n a_3994_10444# vdd vdd sky130_fd_pr__pfet_01v8_hvt ad=2.7e+11p pd=2.54e+06u as=0p ps=0u w=1e+06u l=150000u
X20 vdd vss vdd vdd sky130_fd_pr__pfet_01v8_hvt ad=0p pd=0u as=0p ps=0u w=870000u l=2.89e+06u
X21 a_14314_14278# a_13399_14278# a_13967_14520# vss sky130_fd_pr__nfet_01v8 ad=1.422e+11p pd=1.51e+06u as=1.998e+11p ps=1.97e+06u w=360000u l=150000u
X22 vss a_13741_18795# a_13366_17696# vss sky130_fd_pr__nfet_01v8 ad=0p pd=0u as=1.352e+11p ps=1.56e+06u w=520000u l=150000u
X23 vss ctl2n n2n vss sky130_fd_pr__nfet_01v8 ad=0p pd=0u as=1.755e+11p ps=1.84e+06u w=650000u l=150000u
X24 vss a_3568_11166# a_8449_10476# vss sky130_fd_pr__nfet_01v8 ad=0p pd=0u as=1.092e+11p ps=1.36e+06u w=420000u l=150000u
X25 a_7313_14278# a_3693_11558# a_7222_14278# vss sky130_fd_pr__nfet_01v8 ad=1.134e+11p pd=1.38e+06u as=1.281e+11p ps=1.45e+06u w=420000u l=150000u
X26 ctl4n a_9645_9926# vdd vdd sky130_fd_pr__pfet_01v8_hvt ad=2.7e+11p pd=2.54e+06u as=0p ps=0u w=1e+06u l=150000u
X27 n4n ctl4n vss vss sky130_fd_pr__nfet_01v8 ad=1.755e+11p pd=1.84e+06u as=0p ps=0u w=650000u l=150000u
X28 a_13775_12966# a_11569_13190# vss vss sky130_fd_pr__nfet_01v8 ad=2.275e+11p pd=2e+06u as=0p ps=0u w=650000u l=150000u
X29 a_12722_22144# a_4725_15892# vss vss sky130_fd_pr__nfet_01v8 ad=1.134e+11p pd=1.38e+06u as=0p ps=0u w=420000u l=150000u
X30 a_4611_19718# a_4232_20084# a_4539_19718# vss sky130_fd_pr__nfet_01v8 ad=2.802e+11p pd=2.2e+06u as=8.82e+10p ps=1.26e+06u w=420000u l=150000u
X31 vdd vss vdd vdd sky130_fd_pr__pfet_01v8_hvt ad=0p pd=0u as=0p ps=0u w=870000u l=1.05e+06u
X32 vdd a_14605_21043# a_14536_21172# vdd sky130_fd_pr__pfet_01v8_hvt ad=0p pd=0u as=2.583e+11p ps=2.37e+06u w=840000u l=150000u
X33 vss a_12089_19692# a_3713_20780# vss sky130_fd_pr__nfet_01v8 ad=0p pd=0u as=1.69e+11p ps=1.82e+06u w=650000u l=150000u
X34 vdd a_16597_15340# a_16389_13905# vdd sky130_fd_pr__pfet_01v8_hvt ad=0p pd=0u as=2.6e+11p ps=2.52e+06u w=1e+06u l=150000u
X35 a_22891_16254# vn a_23521_16136# vss sky130_fd_pr__nfet_01v8 ad=5.8e+11p pd=5.16e+06u as=2.9e+11p ps=2.58e+06u w=1e+06u l=300000u
X36 a_7143_18630# a_6977_18630# vdd vdd sky130_fd_pr__pfet_01v8_hvt ad=1.664e+11p pd=1.8e+06u as=0p ps=0u w=640000u l=150000u
X37 vdd a_17341_14038# a_17328_13734# vdd sky130_fd_pr__pfet_01v8_hvt ad=0p pd=0u as=1.134e+11p ps=1.38e+06u w=420000u l=150000u
X38 ctl3p a_7069_21894# vss vss sky130_fd_pr__nfet_01v8 ad=1.755e+11p pd=1.84e+06u as=0p ps=0u w=650000u l=150000u
X39 a_24604_20196# trimb3 vss vss sky130_fd_pr__nfet_01v8_lvt ad=8.7e+11p pd=7.74e+06u as=0p ps=0u w=1e+06u l=300000u
X40 trim4 a_15533_14830# vss vss sky130_fd_pr__nfet_01v8 ad=1.755e+11p pd=1.84e+06u as=0p ps=0u w=650000u l=150000u
X41 n9p ctl9p vss vss sky130_fd_pr__nfet_01v8 ad=1.755e+11p pd=1.84e+06u as=0p ps=0u w=650000u l=150000u
X42 vss a_16502_18318# a_15441_18782# vss sky130_fd_pr__nfet_01v8 ad=0p pd=0u as=1.69e+11p ps=1.82e+06u w=650000u l=150000u
X43 vss a_3625_15340# a_3573_15366# vss sky130_fd_pr__nfet_01v8 ad=0p pd=0u as=1.69e+11p ps=1.82e+06u w=650000u l=150000u
X44 vss a_6848_14252# a_5067_14423# vss sky130_fd_pr__nfet_01v8 ad=0p pd=0u as=1.755e+11p ps=1.84e+06u w=650000u l=150000u
X45 a_8991_20806# a_8541_21350# vss vss sky130_fd_pr__nfet_01v8 ad=1.495e+11p pd=1.76e+06u as=0p ps=0u w=650000u l=150000u
X46 vss a_12897_13708# a_17925_19718# vss sky130_fd_pr__nfet_01v8 ad=0p pd=0u as=1.092e+11p ps=1.36e+06u w=420000u l=150000u
X47 a_10145_14861# a_9963_14861# vdd vdd sky130_fd_pr__pfet_01v8_hvt ad=8.82e+10p pd=1.26e+06u as=0p ps=0u w=420000u l=150000u
X48 a_6060_20262# a_5302_20378# a_5497_20236# vdd sky130_fd_pr__pfet_01v8_hvt ad=1.302e+11p pd=1.46e+06u as=1.449e+11p ps=1.53e+06u w=420000u l=150000u
X49 vdd vss vdd vdd sky130_fd_pr__pfet_01v8_hvt ad=0p pd=0u as=0p ps=0u w=870000u l=1.05e+06u
X50 a_15975_11564# a_15809_11564# vss vss sky130_fd_pr__nfet_01v8 ad=1.092e+11p pd=1.36e+06u as=0p ps=0u w=420000u l=150000u
X51 a_4301_13427# a_4145_13332# a_4446_13556# vdd sky130_fd_pr__pfet_01v8_hvt ad=1.449e+11p pd=1.53e+06u as=3.402e+11p ps=3.3e+06u w=420000u l=150000u
X52 a_12528_21466# a_3713_21332# a_12446_21466# vdd sky130_fd_pr__pfet_01v8_hvt ad=8.82e+10p pd=1.26e+06u as=1.092e+11p ps=1.36e+06u w=420000u l=150000u
X53 vdd a_3899_9926# a_9322_20262# vdd sky130_fd_pr__pfet_01v8_hvt ad=0p pd=0u as=3.402e+11p ps=3.3e+06u w=420000u l=150000u
X54 vdd a_14573_16428# a_13005_16972# vdd sky130_fd_pr__pfet_01v8_hvt ad=0p pd=0u as=2.6e+11p ps=2.52e+06u w=1e+06u l=150000u
X55 a_10585_19416# a_10153_20242# vss vss sky130_fd_pr__nfet_01v8 ad=1.092e+11p pd=1.36e+06u as=0p ps=0u w=420000u l=150000u
X56 a_5152_18086# a_5065_18328# a_4748_18218# vdd sky130_fd_pr__pfet_01v8_hvt ad=2.583e+11p pd=2.37e+06u as=1.176e+11p ps=1.4e+06u w=420000u l=150000u
X57 vss vdd vss vss sky130_fd_pr__nfet_01v8 ad=0p pd=0u as=0p ps=0u w=550000u l=2.89e+06u
X58 a_16561_14822# a_16310_14938# vdd vdd sky130_fd_pr__pfet_01v8_hvt ad=3.4e+11p pd=2.68e+06u as=0p ps=0u w=1e+06u l=150000u
X59 vss a_9422_12076# a_8706_11826# vss sky130_fd_pr__nfet_01v8 ad=0p pd=0u as=1.7225e+11p ps=1.83e+06u w=650000u l=150000u
X60 vdd a_8497_12878# a_6013_13164# vdd sky130_fd_pr__pfet_01v8_hvt ad=0p pd=0u as=2.6e+11p ps=2.52e+06u w=1e+06u l=150000u
X61 vss a_3534_20236# result5 vss sky130_fd_pr__nfet_01v8 ad=0p pd=0u as=1.755e+11p ps=1.84e+06u w=650000u l=150000u
X62 vss a_16561_14822# a_17132_14822# vss sky130_fd_pr__nfet_01v8 ad=0p pd=0u as=1.092e+11p ps=1.36e+06u w=420000u l=150000u
X63 vdd a_6607_17784# a_6497_17908# vdd sky130_fd_pr__pfet_01v8_hvt ad=0p pd=0u as=3.402e+11p ps=3.3e+06u w=420000u l=150000u
X64 vss vdd vss vss sky130_fd_pr__nfet_01v8 ad=0p pd=0u as=0p ps=0u w=550000u l=1.05e+06u
X65 a_8764_10176# a_8734_10078# vdd vdd sky130_fd_pr__pfet_01v8_hvt ad=9.65e+11p pd=7.93e+06u as=0p ps=0u w=1e+06u l=150000u
X66 vss a_12037_13734# a_10083_11532# vss sky130_fd_pr__nfet_01v8 ad=0p pd=0u as=1.134e+11p ps=1.38e+06u w=420000u l=150000u
X67 a_8017_19870# a_6701_20806# a_8163_19718# vss sky130_fd_pr__nfet_01v8 ad=3.38e+11p pd=3.64e+06u as=2.275e+11p ps=2e+06u w=650000u l=150000u
X68 a_16946_18630# a_3899_9926# vss vss sky130_fd_pr__nfet_01v8 ad=8.82e+10p pd=1.26e+06u as=0p ps=0u w=420000u l=150000u
X69 vss vdd vss vss sky130_fd_pr__nfet_01v8 ad=0p pd=0u as=0p ps=0u w=550000u l=1.05e+06u
X70 a_9930_14430# a_6939_12620# vss vss sky130_fd_pr__nfet_01v8 ad=1.092e+11p pd=1.36e+06u as=0p ps=0u w=420000u l=150000u
X71 vdd a_9021_20504# a_8982_20378# vdd sky130_fd_pr__pfet_01v8_hvt ad=0p pd=0u as=1.664e+11p ps=1.8e+06u w=640000u l=150000u
X72 vdd vss vdd vdd sky130_fd_pr__pfet_01v8_hvt ad=0p pd=0u as=0p ps=0u w=870000u l=1.97e+06u
X73 a_14366_21172# a_13929_20780# vdd vdd sky130_fd_pr__pfet_01v8_hvt ad=1.134e+11p pd=1.38e+06u as=0p ps=0u w=420000u l=150000u
X74 trim2 a_17925_10478# vss vss sky130_fd_pr__nfet_01v8 ad=1.755e+11p pd=1.84e+06u as=0p ps=0u w=650000u l=150000u
X75 vss a_3563_9926# a_3899_9926# vss sky130_fd_pr__nfet_01v8 ad=0p pd=0u as=1.053e+12p ps=1.104e+07u w=650000u l=150000u
X76 a_6725_15499# a_10188_15910# vdd vdd sky130_fd_pr__pfet_01v8_hvt ad=2.24e+12p pd=2.048e+07u as=0p ps=0u w=1e+06u l=150000u
X77 vdd a_9378_19406# a_8133_19692# vdd sky130_fd_pr__pfet_01v8_hvt ad=0p pd=0u as=2.6e+11p ps=2.52e+06u w=1e+06u l=150000u
X78 a_9928_13734# a_9737_13734# vdd vdd sky130_fd_pr__pfet_01v8_hvt ad=8.1e+11p pd=7.62e+06u as=0p ps=0u w=1e+06u l=150000u
X79 a_6753_20780# a_6956_21058# vdd vdd sky130_fd_pr__pfet_01v8_hvt ad=1.134e+11p pd=1.38e+06u as=0p ps=0u w=420000u l=150000u
X80 vss a_10188_15910# a_6725_15499# vss sky130_fd_pr__nfet_01v8 ad=0p pd=0u as=9.408e+11p ps=1.12e+07u w=420000u l=150000u
X81 vss vdd vss vss sky130_fd_pr__nfet_01v8 ad=0p pd=0u as=0p ps=0u w=550000u l=1.05e+06u
X82 vdd vss vdd vdd sky130_fd_pr__pfet_01v8_hvt ad=0p pd=0u as=0p ps=0u w=870000u l=1.05e+06u
X83 vss a_15041_14038# a_7477_12254# vss sky130_fd_pr__nfet_01v8 ad=0p pd=0u as=1.755e+11p ps=1.84e+06u w=650000u l=150000u
X84 a_11759_21048# a_11541_20806# vdd vdd sky130_fd_pr__pfet_01v8_hvt ad=2.583e+11p pd=2.37e+06u as=0p ps=0u w=840000u l=150000u
X85 a_7570_19290# a_3713_20244# vss vss sky130_fd_pr__nfet_01v8 ad=1.134e+11p pd=1.38e+06u as=0p ps=0u w=420000u l=150000u
X86 a_8167_18630# a_6977_18630# a_8058_18630# vss sky130_fd_pr__nfet_01v8 ad=1.338e+11p pd=1.5e+06u as=1.422e+11p ps=1.51e+06u w=360000u l=150000u
X87 vss a_4488_16606# a_8803_16998# vss sky130_fd_pr__nfet_01v8 ad=0p pd=0u as=1.092e+11p ps=1.36e+06u w=420000u l=150000u
X88 vss a_3563_9926# a_3899_9926# vss sky130_fd_pr__nfet_01v8 ad=0p pd=0u as=0p ps=0u w=650000u l=150000u
X89 n2p ctl2p vdd vdd sky130_fd_pr__pfet_01v8_hvt ad=2.7e+11p pd=2.54e+06u as=1.347e+13p ps=1.2894e+08u w=1e+06u l=150000u
X90 vss a_3665_17542# a_3843_17542# vss sky130_fd_pr__nfet_01v8 ad=0p pd=0u as=1.134e+11p ps=1.38e+06u w=420000u l=150000u
X91 vss a_12326_16142# a_16085_13740# vss sky130_fd_pr__nfet_01v8 ad=0p pd=0u as=1.092e+11p ps=1.36e+06u w=420000u l=150000u
X92 vdd a_6043_13734# a_7104_13734# vdd sky130_fd_pr__pfet_01v8_hvt ad=0p pd=0u as=1.092e+11p ps=1.36e+06u w=420000u l=150000u
X93 vdd a_7335_15412# a_7435_15630# vdd sky130_fd_pr__pfet_01v8_hvt ad=0p pd=0u as=2.5725e+11p ps=2.99e+06u w=420000u l=150000u
X94 a_12579_12646# a_11849_12254# a_12497_12646# vdd sky130_fd_pr__pfet_01v8_hvt ad=5.9e+11p pd=5.18e+06u as=5.1285e+11p ps=5.04e+06u w=1e+06u l=150000u
X95 a_14975_14112# a_13785_13740# a_14866_14112# vss sky130_fd_pr__nfet_01v8 ad=1.338e+11p pd=1.5e+06u as=1.422e+11p ps=1.51e+06u w=360000u l=150000u
X96 a_12215_16454# a_11025_16454# a_12106_16454# vss sky130_fd_pr__nfet_01v8 ad=1.338e+11p pd=1.5e+06u as=1.422e+11p ps=1.51e+06u w=360000u l=150000u
X97 a_16693_12102# a_16343_12102# a_16598_12102# vdd sky130_fd_pr__pfet_01v8_hvt ad=1.449e+11p pd=1.53e+06u as=1.302e+11p ps=1.46e+06u w=420000u l=150000u
X98 a_4145_19860# a_5277_19692# vss vss sky130_fd_pr__nfet_01v8 ad=1.092e+11p pd=1.36e+06u as=0p ps=0u w=420000u l=150000u
X99 vdd vss sky130_fd_pr__cap_mim_m3_2 l=1.2e+07u w=1.2e+07u
X100 vss a_16729_9926# ctl9n vss sky130_fd_pr__nfet_01v8 ad=0p pd=0u as=1.755e+11p ps=1.84e+06u w=650000u l=150000u
X101 vdd a_16819_13708# a_16709_13734# vdd sky130_fd_pr__pfet_01v8_hvt ad=0p pd=0u as=3.402e+11p ps=3.3e+06u w=420000u l=150000u
X102 vdd a_10188_15910# a_6725_15499# vdd sky130_fd_pr__pfet_01v8_hvt ad=0p pd=0u as=0p ps=0u w=1e+06u l=150000u
X103 a_6948_13440# a_7134_13164# a_7092_13190# vss sky130_fd_pr__nfet_01v8 ad=3.9325e+11p pd=2.51e+06u as=1.365e+11p ps=1.72e+06u w=650000u l=150000u
X104 a_11077_18604# a_11360_18604# a_11295_18880# vdd sky130_fd_pr__pfet_01v8_hvt ad=7.4e+11p pd=5.48e+06u as=3.25e+11p ps=2.65e+06u w=1e+06u l=150000u
X105 vdd vss vdd vdd sky130_fd_pr__pfet_01v8_hvt ad=0p pd=0u as=0p ps=0u w=870000u l=1.97e+06u
X106 vss a_4237_17240# a_4198_17114# vss sky130_fd_pr__nfet_01v8 ad=0p pd=0u as=1.092e+11p ps=1.36e+06u w=420000u l=150000u
X107 vss vdd vss vss sky130_fd_pr__nfet_01v8 ad=0p pd=0u as=0p ps=0u w=550000u l=1.05e+06u
X108 a_14709_16704# a_14834_16606# vdd vdd sky130_fd_pr__pfet_01v8_hvt ad=5.35e+11p pd=5.07e+06u as=0p ps=0u w=1e+06u l=150000u
X109 vdd vss sky130_fd_pr__cap_mim_m3_2 l=1.2e+07u w=1.2e+07u
X110 a_11280_14530# a_11597_14420# a_11555_14278# vss sky130_fd_pr__nfet_01v8 ad=1.422e+11p pd=1.51e+06u as=1.338e+11p ps=1.5e+06u w=360000u l=150000u
X111 vdd a_9247_18060# a_12273_19148# vdd sky130_fd_pr__pfet_01v8_hvt ad=0p pd=0u as=7.4e+11p ps=5.48e+06u w=1e+06u l=150000u
X112 a_16300_21056# a_4449_14804# a_16218_21056# vdd sky130_fd_pr__pfet_01v8_hvt ad=8.82e+10p pd=1.26e+06u as=1.092e+11p ps=1.36e+06u w=420000u l=150000u
X113 vdd a_13498_17542# a_13674_17516# vdd sky130_fd_pr__pfet_01v8_hvt ad=0p pd=0u as=1.134e+11p ps=1.38e+06u w=420000u l=150000u
X114 vdd a_10617_16972# a_5277_19692# vdd sky130_fd_pr__pfet_01v8_hvt ad=0p pd=0u as=2.7e+11p ps=2.54e+06u w=1e+06u l=150000u
X115 a_17050_16428# a_17617_16972# vss vss sky130_fd_pr__nfet_01v8 ad=5.005e+11p pd=2.84e+06u as=0p ps=0u w=650000u l=150000u
X116 a_11304_13190# a_10083_11532# a_11025_13190# vss sky130_fd_pr__nfet_01v8 ad=2.665e+11p pd=2.12e+06u as=3.9975e+11p ps=3.83e+06u w=650000u l=150000u
X117 vss vdd vss vss sky130_fd_pr__nfet_01v8 ad=0p pd=0u as=0p ps=0u w=550000u l=590000u
X118 vss vdd vss vss sky130_fd_pr__nfet_01v8 ad=0p pd=0u as=0p ps=0u w=550000u l=1.05e+06u
X119 vss vdd vss vss sky130_fd_pr__nfet_01v8 ad=0p pd=0u as=0p ps=0u w=550000u l=1.05e+06u
X120 a_8415_17694# a_4388_16606# vdd vdd sky130_fd_pr__pfet_01v8_hvt ad=1.092e+11p pd=1.36e+06u as=0p ps=0u w=420000u l=150000u
X121 a_16789_12102# a_16343_12102# a_16693_12102# vss sky130_fd_pr__nfet_01v8 ad=2.802e+11p pd=2.2e+06u as=1.188e+11p ps=1.38e+06u w=360000u l=150000u
X122 vss a_16710_18354# a_17835_17318# vss sky130_fd_pr__nfet_01v8 ad=0p pd=0u as=1.755e+11p ps=1.84e+06u w=650000u l=150000u
X123 vinn a_103126_7850# a_104073_8108# vss sky130_fd_pr__nfet_g5v0d10v5 ad=2.9e+11p pd=2.58e+06u as=2.9e+11p ps=2.58e+06u w=1e+06u l=500000u
X124 a_5499_14112# a_4309_13740# a_5390_14112# vss sky130_fd_pr__nfet_01v8 ad=1.338e+11p pd=1.5e+06u as=1.422e+11p ps=1.51e+06u w=360000u l=150000u
X125 a_3534_21324# a_3713_21332# vdd vdd sky130_fd_pr__pfet_01v8_hvt ad=1.664e+11p pd=1.8e+06u as=0p ps=0u w=640000u l=150000u
X126 vss vdd vss vss sky130_fd_pr__nfet_01v8 ad=0p pd=0u as=0p ps=0u w=550000u l=1.05e+06u
X127 vdd a_7429_21043# a_7360_21172# vdd sky130_fd_pr__pfet_01v8_hvt ad=0p pd=0u as=2.583e+11p ps=2.37e+06u w=840000u l=150000u
X128 a_6725_15499# a_10188_15910# vdd vdd sky130_fd_pr__pfet_01v8_hvt ad=0p pd=0u as=0p ps=0u w=1e+06u l=150000u
X129 vss a_17005_21358# ctl8p vss sky130_fd_pr__nfet_01v8 ad=0p pd=0u as=1.755e+11p ps=1.84e+06u w=650000u l=150000u
X130 vdd a_6485_16214# a_6472_15910# vdd sky130_fd_pr__pfet_01v8_hvt ad=0p pd=0u as=1.134e+11p ps=1.38e+06u w=420000u l=150000u
X131 vss a_17098_13164# a_17451_14822# vss sky130_fd_pr__nfet_01v8 ad=0p pd=0u as=1.092e+11p ps=1.36e+06u w=420000u l=150000u
X132 a_5485_10470# a_3899_9926# vdd vdd sky130_fd_pr__pfet_01v8_hvt ad=3.402e+11p pd=3.3e+06u as=0p ps=0u w=420000u l=150000u
X133 a_15033_21868# a_14123_21868# a_15464_21894# vss sky130_fd_pr__nfet_01v8 ad=1.95e+11p pd=1.9e+06u as=2.275e+11p ps=2e+06u w=650000u l=150000u
X134 a_16839_17296# a_16506_17230# vss vss sky130_fd_pr__nfet_01v8 ad=1.092e+11p pd=1.36e+06u as=0p ps=0u w=420000u l=150000u
X135 a_6389_17542# a_5873_17542# a_6294_17542# vss sky130_fd_pr__nfet_01v8 ad=1.188e+11p pd=1.38e+06u as=1.32e+11p ps=1.49e+06u w=360000u l=150000u
X136 vss a_16434_14912# a_16310_14938# vss sky130_fd_pr__nfet_01v8 ad=0p pd=0u as=1.134e+11p ps=1.38e+06u w=420000u l=150000u
X137 vdd vss vdd vdd sky130_fd_pr__pfet_01v8_hvt ad=0p pd=0u as=0p ps=0u w=870000u l=1.05e+06u
X138 a_3534_15884# a_3573_15366# vdd vdd sky130_fd_pr__pfet_01v8_hvt ad=1.664e+11p pd=1.8e+06u as=0p ps=0u w=640000u l=150000u
X139 a_11390_15142# a_7573_12254# vss vss sky130_fd_pr__nfet_01v8 ad=1.82e+11p pd=1.86e+06u as=0p ps=0u w=650000u l=150000u
X140 vss a_3573_13190# a_9463_12966# vss sky130_fd_pr__nfet_01v8 ad=0p pd=0u as=0p ps=0u w=650000u l=150000u
X141 a_5497_20236# a_5302_20378# a_5807_20628# vss sky130_fd_pr__nfet_01v8 ad=1.188e+11p pd=1.38e+06u as=2.802e+11p ps=2.2e+06u w=360000u l=150000u
X142 a_13872_13440# a_13601_13556# a_13789_13440# vdd sky130_fd_pr__pfet_01v8_hvt ad=5.35e+11p pd=5.07e+06u as=2.65e+11p ps=2.53e+06u w=1e+06u l=150000u
X143 vdd a_9611_18782# a_9424_18604# vdd sky130_fd_pr__pfet_01v8_hvt ad=0p pd=0u as=2.6e+11p ps=2.52e+06u w=1e+06u l=150000u
X144 a_3713_14804# a_6485_16214# vdd vdd sky130_fd_pr__pfet_01v8_hvt ad=2.6e+11p pd=2.52e+06u as=0p ps=0u w=1e+06u l=150000u
X145 vdd a_14123_21868# a_16445_20262# vdd sky130_fd_pr__pfet_01v8_hvt ad=0p pd=0u as=2.7e+11p ps=2.54e+06u w=1e+06u l=150000u
X146 vss a_12609_19860# a_12570_19986# vss sky130_fd_pr__nfet_01v8 ad=0p pd=0u as=1.092e+11p ps=1.36e+06u w=420000u l=150000u
X147 a_4851_21056# a_3573_19718# vdd vdd sky130_fd_pr__pfet_01v8_hvt ad=5.9e+11p pd=5.18e+06u as=0p ps=0u w=1e+06u l=150000u
X148 vss a_5846_18060# a_5784_18086# vss sky130_fd_pr__nfet_01v8 ad=0p pd=0u as=1.32e+11p ps=1.49e+06u w=420000u l=150000u
X149 vdd a_3899_9926# a_3717_16972# vdd sky130_fd_pr__pfet_01v8_hvt ad=0p pd=0u as=1.134e+11p ps=1.38e+06u w=420000u l=150000u
X150 a_4564_16704# a_4488_16606# a_4256_16454# vdd sky130_fd_pr__pfet_01v8_hvt ad=3.25e+11p pd=2.65e+06u as=7.4e+11p ps=5.48e+06u w=1e+06u l=150000u
X151 vss a_5921_14796# a_5867_15142# vss sky130_fd_pr__nfet_01v8 ad=0p pd=0u as=1.755e+11p ps=1.84e+06u w=650000u l=150000u
X152 vdd a_3573_13190# a_9546_12646# vdd sky130_fd_pr__pfet_01v8_hvt ad=0p pd=0u as=6.3e+11p ps=5.26e+06u w=1e+06u l=150000u
X153 vdd vss vdd vdd sky130_fd_pr__pfet_01v8_hvt ad=0p pd=0u as=0p ps=0u w=870000u l=1.97e+06u
X154 vss vdd vss vss sky130_fd_pr__nfet_01v8 ad=0p pd=0u as=0p ps=0u w=550000u l=1.05e+06u
X155 vdd vss vdd vdd sky130_fd_pr__pfet_01v8_hvt ad=0p pd=0u as=0p ps=0u w=870000u l=1.97e+06u
X156 vss a_12957_18630# a_10153_20242# vss sky130_fd_pr__nfet_01v8 ad=0p pd=0u as=1.134e+11p ps=1.38e+06u w=420000u l=150000u
X157 vss a_7765_13342# a_4889_12817# vss sky130_fd_pr__nfet_01v8 ad=0p pd=0u as=1.69e+11p ps=1.82e+06u w=650000u l=150000u
X158 a_6219_19718# a_4769_20262# a_5873_19968# vss sky130_fd_pr__nfet_01v8 ad=2.275e+11p pd=2e+06u as=3.38e+11p ps=3.64e+06u w=650000u l=150000u
X159 a_5921_14796# a_8967_15910# vdd vdd sky130_fd_pr__pfet_01v8_hvt ad=2.65e+11p pd=2.53e+06u as=0p ps=0u w=1e+06u l=150000u
X160 vdd vss vdd vdd sky130_fd_pr__pfet_01v8_hvt ad=0p pd=0u as=0p ps=0u w=870000u l=1.97e+06u
X161 a_5392_19174# a_5215_19174# vss vss sky130_fd_pr__nfet_01v8 ad=1.69e+11p pd=1.82e+06u as=0p ps=0u w=650000u l=150000u
X162 vss a_13687_21582# a_17005_21358# vss sky130_fd_pr__nfet_01v8 ad=0p pd=0u as=1.092e+11p ps=1.36e+06u w=420000u l=150000u
X163 a_14682_11936# a_13767_11564# a_14335_11532# vss sky130_fd_pr__nfet_01v8 ad=1.422e+11p pd=1.51e+06u as=1.998e+11p ps=1.97e+06u w=360000u l=150000u
X164 a_16961_18125# a_16710_18354# a_16502_18318# vdd sky130_fd_pr__pfet_01v8_hvt ad=8.82e+10p pd=1.26e+06u as=3.864e+11p ps=2.68e+06u w=420000u l=150000u
X165 vss a_9632_12646# a_13601_13556# vss sky130_fd_pr__nfet_01v8 ad=0p pd=0u as=1.113e+11p ps=1.37e+06u w=420000u l=150000u
X166 a_15456_21350# a_15330_21466# a_15052_21482# vss sky130_fd_pr__nfet_01v8 ad=1.998e+11p pd=1.97e+06u as=1.422e+11p ps=1.51e+06u w=360000u l=150000u
X167 vdd a_10153_20242# a_16177_17542# vdd sky130_fd_pr__pfet_01v8_hvt ad=0p pd=0u as=1.664e+11p ps=1.8e+06u w=640000u l=150000u
X168 a_11077_14252# a_11280_14530# vdd vdd sky130_fd_pr__pfet_01v8_hvt ad=1.134e+11p pd=1.38e+06u as=0p ps=0u w=420000u l=150000u
X169 vss vdd vss vss sky130_fd_pr__nfet_01v8 ad=0p pd=0u as=0p ps=0u w=550000u l=590000u
X170 vss vdd vss vss sky130_fd_pr__nfet_01v8 ad=0p pd=0u as=0p ps=0u w=550000u l=2.89e+06u
X171 vdd a_3625_19692# a_3573_19718# vdd sky130_fd_pr__pfet_01v8_hvt ad=0p pd=0u as=2.6e+11p ps=2.52e+06u w=1e+06u l=150000u
X172 a_13674_17516# a_13498_17542# a_13818_17542# vss sky130_fd_pr__nfet_01v8 ad=1.092e+11p pd=1.36e+06u as=8.82e+10p ps=1.26e+06u w=420000u l=150000u
X173 vdd a_6918_13342# a_7652_16026# vdd sky130_fd_pr__pfet_01v8_hvt ad=0p pd=0u as=8.82e+10p ps=1.26e+06u w=420000u l=150000u
X174 a_10370_16454# a_10328_16606# a_10067_16428# vss sky130_fd_pr__nfet_01v8 ad=1.82e+11p pd=1.86e+06u as=1.7875e+11p ps=1.85e+06u w=650000u l=150000u
X175 a_17628_14822# a_17451_14822# vdd vdd sky130_fd_pr__pfet_01v8_hvt ad=2.6e+11p pd=2.52e+06u as=0p ps=0u w=1e+06u l=150000u
X176 a_17182_17908# a_16177_17542# a_17106_17908# vdd sky130_fd_pr__pfet_01v8_hvt ad=2.73e+11p pd=2.98e+06u as=9.66e+10p ps=1.3e+06u w=420000u l=150000u
X177 a_7527_10470# a_6051_12254# vdd vdd sky130_fd_pr__pfet_01v8_hvt ad=6.5e+11p pd=5.3e+06u as=0p ps=0u w=1e+06u l=150000u
X178 a_5377_10848# a_4861_10476# a_5282_10836# vss sky130_fd_pr__nfet_01v8 ad=1.188e+11p pd=1.38e+06u as=1.32e+11p ps=1.49e+06u w=360000u l=150000u
X179 a_15052_21482# a_15330_21466# a_15286_21350# vdd sky130_fd_pr__pfet_01v8_hvt ad=1.176e+11p pd=1.4e+06u as=1.134e+11p ps=1.38e+06u w=420000u l=150000u
X180 a_14628_20262# a_14502_20378# a_14224_20394# vss sky130_fd_pr__nfet_01v8 ad=1.998e+11p pd=1.97e+06u as=1.422e+11p ps=1.51e+06u w=360000u l=150000u
X181 a_14204_17756# a_14054_17908# vss vss sky130_fd_pr__nfet_01v8 ad=1.404e+11p pd=1.6e+06u as=0p ps=0u w=540000u l=150000u
X182 a_3568_11166# a_6477_14796# vss vss sky130_fd_pr__nfet_01v8 ad=1.134e+11p pd=1.38e+06u as=0p ps=0u w=420000u l=150000u
X183 a_6969_12646# a_6939_12620# vdd vdd sky130_fd_pr__pfet_01v8_hvt ad=2.7e+11p pd=2.54e+06u as=0p ps=0u w=1e+06u l=150000u
X184 a_17612_14278# a_3899_9926# vss vss sky130_fd_pr__nfet_01v8 ad=1.281e+11p pd=1.45e+06u as=0p ps=0u w=420000u l=150000u
X185 vdd a_4145_19860# a_4106_19986# vdd sky130_fd_pr__pfet_01v8_hvt ad=0p pd=0u as=1.664e+11p ps=1.8e+06u w=640000u l=150000u
X186 vss a_12326_16142# a_13785_13740# vss sky130_fd_pr__nfet_01v8 ad=0p pd=0u as=1.092e+11p ps=1.36e+06u w=420000u l=150000u
X187 a_14843_20806# a_3899_9926# vss vss sky130_fd_pr__nfet_01v8 ad=8.82e+10p pd=1.26e+06u as=0p ps=0u w=420000u l=150000u
X188 vdd a_3899_9926# a_10886_19174# vdd sky130_fd_pr__pfet_01v8_hvt ad=0p pd=0u as=3.402e+11p ps=3.3e+06u w=420000u l=150000u
X189 vdd vss vdd vdd sky130_fd_pr__pfet_01v8_hvt ad=0p pd=0u as=0p ps=0u w=870000u l=1.05e+06u
X190 vdd a_7573_12254# a_9551_12352# vdd sky130_fd_pr__pfet_01v8_hvt ad=0p pd=0u as=6.5e+11p ps=5.3e+06u w=1e+06u l=150000u
X191 a_15859_18305# a_12765_15910# vss vss sky130_fd_pr__nfet_01v8 ad=1.352e+11p pd=1.56e+06u as=0p ps=0u w=520000u l=150000u
X192 vdd a_14121_10988# a_14108_11380# vdd sky130_fd_pr__pfet_01v8_hvt ad=0p pd=0u as=1.134e+11p ps=1.38e+06u w=420000u l=150000u
X193 vss vdd vss vss sky130_fd_pr__nfet_01v8 ad=0p pd=0u as=0p ps=0u w=550000u l=2.89e+06u
X194 vss vdd vss vss sky130_fd_pr__nfet_01v8 ad=0p pd=0u as=0p ps=0u w=550000u l=1.05e+06u
X195 vss a_16355_19406# a_16445_19174# vss sky130_fd_pr__nfet_01v8 ad=0p pd=0u as=1.755e+11p ps=1.84e+06u w=650000u l=150000u
X196 a_12927_13734# a_12897_13708# a_12855_13734# vdd sky130_fd_pr__pfet_01v8_hvt ad=3.48e+11p pd=2.78e+06u as=2.1e+11p ps=2.42e+06u w=1e+06u l=150000u
X197 vdd a_6939_12620# a_9737_13734# vdd sky130_fd_pr__pfet_01v8_hvt ad=0p pd=0u as=1.092e+11p ps=1.36e+06u w=420000u l=150000u
X198 vss a_10153_20242# a_11117_20268# vss sky130_fd_pr__nfet_01v8 ad=0p pd=0u as=1.092e+11p ps=1.36e+06u w=420000u l=150000u
X199 a_16736_18630# a_16343_18630# a_16626_18630# vss sky130_fd_pr__nfet_01v8 ad=1.341e+11p pd=1.5e+06u as=1.44e+11p ps=1.52e+06u w=360000u l=150000u
X200 vss vdd vss vss sky130_fd_pr__nfet_01v8 ad=0p pd=0u as=0p ps=0u w=550000u l=1.05e+06u
X201 a_14932_16428# a_14245_18406# vss vss sky130_fd_pr__nfet_01v8 ad=1.113e+11p pd=1.37e+06u as=0p ps=0u w=420000u l=150000u
X202 a_6871_12102# a_6701_12102# vdd vdd sky130_fd_pr__pfet_01v8_hvt ad=2.054e+11p pd=2.1e+06u as=0p ps=0u w=790000u l=150000u
X203 a_5277_21868# a_9680_19718# vss vss sky130_fd_pr__nfet_01v8 ad=1.69e+11p pd=1.82e+06u as=0p ps=0u w=650000u l=150000u
X204 a_11446_16454# a_10015_16454# vdd vdd sky130_fd_pr__pfet_01v8_hvt ad=1.302e+11p pd=1.46e+06u as=0p ps=0u w=420000u l=150000u
X205 vdd a_14329_15884# a_14260_15910# vdd sky130_fd_pr__pfet_01v8_hvt ad=0p pd=0u as=2.583e+11p ps=2.37e+06u w=840000u l=150000u
X206 a_11076_15518# a_11172_15340# vss vss sky130_fd_pr__nfet_01v8 ad=1.092e+11p pd=1.36e+06u as=0p ps=0u w=420000u l=150000u
X207 vdd vss vdd vdd sky130_fd_pr__pfet_01v8_hvt ad=0p pd=0u as=0p ps=0u w=870000u l=1.97e+06u
X208 a_4232_13556# a_4145_13332# a_3828_13442# vdd sky130_fd_pr__pfet_01v8_hvt ad=2.583e+11p pd=2.37e+06u as=1.176e+11p ps=1.4e+06u w=420000u l=150000u
X209 a_17341_14038# a_3899_9926# vdd vdd sky130_fd_pr__pfet_01v8_hvt ad=1.134e+11p pd=1.38e+06u as=0p ps=0u w=420000u l=150000u
X210 vss a_13845_12076# a_13779_12102# vss sky130_fd_pr__nfet_01v8 ad=0p pd=0u as=1.338e+11p ps=1.5e+06u w=420000u l=150000u
X211 a_11678_15518# a_8482_15752# vdd vdd sky130_fd_pr__pfet_01v8_hvt ad=1.092e+11p pd=1.36e+06u as=0p ps=0u w=420000u l=150000u
X212 vss a_11076_15518# a_11025_15366# vss sky130_fd_pr__nfet_01v8 ad=0p pd=0u as=1.69e+11p ps=1.82e+06u w=650000u l=150000u
X213 vdd a_16434_14912# a_16392_14938# vdd sky130_fd_pr__pfet_01v8_hvt ad=0p pd=0u as=8.82e+10p ps=1.26e+06u w=420000u l=150000u
X214 vdd a_11025_13190# a_11569_13190# vdd sky130_fd_pr__pfet_01v8_hvt ad=0p pd=0u as=2.7e+11p ps=2.54e+06u w=1e+06u l=150000u
X215 vdd a_19955_17707# a_19955_15979# vdd sky130_fd_pr__pfet_01v8 ad=0p pd=0u as=5.8e+11p ps=5.16e+06u w=1e+06u l=300000u
X216 vdd a_13323_12344# a_13213_12468# vdd sky130_fd_pr__pfet_01v8_hvt ad=0p pd=0u as=3.402e+11p ps=3.3e+06u w=420000u l=150000u
X217 a_8980_13734# a_8803_13734# vss vss sky130_fd_pr__nfet_01v8 ad=1.69e+11p pd=1.82e+06u as=0p ps=0u w=650000u l=150000u
X218 a_4897_20780# a_8869_21868# vss vss sky130_fd_pr__nfet_01v8 ad=1.134e+11p pd=1.38e+06u as=0p ps=0u w=420000u l=150000u
X219 vss a_9447_20806# a_9740_20262# vss sky130_fd_pr__nfet_01v8 ad=0p pd=0u as=1.32e+11p ps=1.49e+06u w=420000u l=150000u
X220 a_6926_19968# a_3713_18604# vss vss sky130_fd_pr__nfet_01v8 ad=1.134e+11p pd=1.38e+06u as=0p ps=0u w=420000u l=150000u
X221 vdd a_16839_17296# a_16869_17037# vdd sky130_fd_pr__pfet_01v8_hvt ad=0p pd=0u as=8.82e+10p ps=1.26e+06u w=420000u l=150000u
X222 a_13629_12878# a_7477_12254# a_13775_12966# vss sky130_fd_pr__nfet_01v8 ad=3.38e+11p pd=3.64e+06u as=0p ps=0u w=650000u l=150000u
X223 a_14573_16428# a_14834_16606# a_14792_16454# vss sky130_fd_pr__nfet_01v8 ad=1.755e+11p pd=1.84e+06u as=1.82e+11p ps=1.86e+06u w=650000u l=150000u
X224 a_13792_15188# a_13746_15054# vss vss sky130_fd_pr__nfet_01v8 ad=1.386e+11p pd=1.5e+06u as=0p ps=0u w=420000u l=150000u
X225 a_5129_12102# a_4954_17516# vdd vdd sky130_fd_pr__pfet_01v8_hvt ad=2.7e+11p pd=2.54e+06u as=0p ps=0u w=1e+06u l=150000u
X226 a_12696_20084# a_12609_19860# a_12292_19970# vdd sky130_fd_pr__pfet_01v8_hvt ad=2.583e+11p pd=2.37e+06u as=1.176e+11p ps=1.4e+06u w=420000u l=150000u
X227 vdd ctl5p n5p vdd sky130_fd_pr__pfet_01v8_hvt ad=0p pd=0u as=2.7e+11p ps=2.54e+06u w=1e+06u l=150000u
X228 a_6153_17318# a_4488_16606# vss vss sky130_fd_pr__nfet_01v8 ad=4.55e+11p pd=4e+06u as=0p ps=0u w=650000u l=150000u
X229 vdd vss sky130_fd_pr__cap_mim_m3_2 l=1.2e+07u w=1.2e+07u
X230 a_7273_20948# a_5277_19692# vdd vdd sky130_fd_pr__pfet_01v8_hvt ad=1.664e+11p pd=1.8e+06u as=0p ps=0u w=640000u l=150000u
X231 vss a_15859_18305# a_14337_18782# vss sky130_fd_pr__nfet_01v8 ad=0p pd=0u as=1.352e+11p ps=1.56e+06u w=520000u l=150000u
X232 a_11360_18604# a_11393_17542# vdd vdd sky130_fd_pr__pfet_01v8_hvt ad=2.7e+11p pd=2.54e+06u as=0p ps=0u w=1e+06u l=150000u
X233 a_17628_14822# a_17451_14822# vss vss sky130_fd_pr__nfet_01v8 ad=1.69e+11p pd=1.82e+06u as=0p ps=0u w=650000u l=150000u
X234 a_3717_16972# a_3920_17130# vdd vdd sky130_fd_pr__pfet_01v8_hvt ad=0p pd=0u as=0p ps=0u w=420000u l=150000u
X235 vdd vss sky130_fd_pr__cap_mim_m3_2 l=1.2e+07u w=1.2e+07u
X236 vdd a_16914_12620# a_17365_20262# vdd sky130_fd_pr__pfet_01v8_hvt ad=0p pd=0u as=2.7e+11p ps=2.54e+06u w=1e+06u l=150000u
X237 a_6817_21568# a_6926_19968# vdd vdd sky130_fd_pr__pfet_01v8_hvt ad=3.4e+11p pd=2.68e+06u as=0p ps=0u w=1e+06u l=150000u
X238 a_16409_16129# a_14997_13190# vss vss sky130_fd_pr__nfet_01v8 ad=1.352e+11p pd=1.56e+06u as=0p ps=0u w=520000u l=150000u